(PID.TID 0000.0001) 
(PID.TID 0000.0001) // ======================================================
(PID.TID 0000.0001) //                      MITgcm UV
(PID.TID 0000.0001) //                      =========
(PID.TID 0000.0001) // ======================================================
(PID.TID 0000.0001) // execution environment starting up...
(PID.TID 0000.0001) 
(PID.TID 0000.0001) // MITgcmUV version:  checkpoint65d
(PID.TID 0000.0001) // Build user:        hugke729
(PID.TID 0000.0001) // Build host:        hugke729
(PID.TID 0000.0001) // Build date:        Mon Apr 10 14:21:54 PDT 2017
(PID.TID 0000.0001) 
(PID.TID 0000.0001) // =======================================================
(PID.TID 0000.0001) // Execution Environment parameter file "eedata"
(PID.TID 0000.0001) // =======================================================
(PID.TID 0000.0001) ># Example "eedata" file
(PID.TID 0000.0001) ># Lines beginning "#" are comments
(PID.TID 0000.0001) ># nTx - No. threads per process in X
(PID.TID 0000.0001) ># nTy - No. threads per process in Y
(PID.TID 0000.0001) > &EEPARMS
(PID.TID 0000.0001) > /
(PID.TID 0000.0001) ># Note: Some systems use & as the
(PID.TID 0000.0001) ># namelist terminator. Other systems
(PID.TID 0000.0001) ># use a / character (as shown here).
(PID.TID 0000.0001) 
(PID.TID 0000.0001) // =======================================================
(PID.TID 0000.0001) // Computational Grid Specification ( see files "SIZE.h" )
(PID.TID 0000.0001) //                                  ( and "eedata"       )
(PID.TID 0000.0001) // =======================================================
(PID.TID 0000.0001)      nPx =    1 ; /* No. processes in X */
(PID.TID 0000.0001)      nPy =    1 ; /* No. processes in Y */
(PID.TID 0000.0001)      nSx =    1 ; /* No. tiles in X per process */
(PID.TID 0000.0001)      nSy =    1 ; /* No. tiles in Y per process */
(PID.TID 0000.0001)      sNx =  200 ; /* Tile size in X */
(PID.TID 0000.0001)      sNy =    1 ; /* Tile size in Y */
(PID.TID 0000.0001)      OLx =    2 ; /* Tile overlap distance in X */
(PID.TID 0000.0001)      OLy =    2 ; /* Tile overlap distance in Y */
(PID.TID 0000.0001)      nTx =    1 ; /* No. threads in X per process */
(PID.TID 0000.0001)      nTy =    1 ; /* No. threads in Y per process */
(PID.TID 0000.0001)       Nr =  100 ; /* No. levels in the vertical   */
(PID.TID 0000.0001)       Nx =  200 ; /* Total domain size in X ( = nPx*nSx*sNx ) */
(PID.TID 0000.0001)       Ny =    1 ; /* Total domain size in Y ( = nPy*nSy*sNy ) */
(PID.TID 0000.0001)   nTiles =    1 ; /* Total no. tiles per process ( = nSx*nSy ) */
(PID.TID 0000.0001)   nProcs =    1 ; /* Total no. processes ( = nPx*nPy ) */
(PID.TID 0000.0001) nThreads =    1 ; /* Total no. threads per process ( = nTx*nTy ) */
(PID.TID 0000.0001) usingMPI =    F ; /* Flag used to control whether MPI is in use */
(PID.TID 0000.0001)                   /*  note: To execute a program with MPI calls */
(PID.TID 0000.0001)                   /*  it must be launched appropriately e.g     */
(PID.TID 0000.0001)                   /*  "mpirun -np 64 ......"                    */
(PID.TID 0000.0001) useCoupler=    F ;/* Flag used to control communications with   */
(PID.TID 0000.0001)                   /*  other model components, through a coupler */
(PID.TID 0000.0001) debugMode =    F ; /* print debug msg. (sequence of S/R calls)  */
(PID.TID 0000.0001) printMapIncludesZeros=    F ; /* print zeros in Std.Output maps */
(PID.TID 0000.0001) maxLengthPrt1D=   65 /* maxLength of 1D array printed to StdOut */
(PID.TID 0000.0001) 
(PID.TID 0000.0001) // ======================================================
(PID.TID 0000.0001) // Mapping of tiles to threads
(PID.TID 0000.0001) // ======================================================
(PID.TID 0000.0001) // -o- Thread   1, tiles (   1:   1,   1:   1)
(PID.TID 0000.0001) 
(PID.TID 0000.0001) // ======================================================
(PID.TID 0000.0001) // Tile <-> Tile connectvity table
(PID.TID 0000.0001) // ======================================================
(PID.TID 0000.0001) // Tile number: 000001 (process no. = 000000)
(PID.TID 0000.0001) //        WEST: Tile = 000001, Process = 000000, Comm = put
(PID.TID 0000.0001) //                bi = 000001, bj = 000001
(PID.TID 0000.0001) //        EAST: Tile = 000001, Process = 000000, Comm = put
(PID.TID 0000.0001) //                bi = 000001, bj = 000001
(PID.TID 0000.0001) //       SOUTH: Tile = 000001, Process = 000000, Comm = put
(PID.TID 0000.0001) //                bi = 000001, bj = 000001
(PID.TID 0000.0001) //       NORTH: Tile = 000001, Process = 000000, Comm = put
(PID.TID 0000.0001) //                bi = 000001, bj = 000001
(PID.TID 0000.0001) 
(PID.TID 0000.0001)  INI_PARMS: opening model parameter file "data"
(PID.TID 0000.0001)  OPEN_COPY_DATA_FILE: opening file data
(PID.TID 0000.0001) // =======================================================
(PID.TID 0000.0001) // Parameter file "data"
(PID.TID 0000.0001) // =======================================================
(PID.TID 0000.0001) ># ====================
(PID.TID 0000.0001) ># | Model parameters |
(PID.TID 0000.0001) ># ====================
(PID.TID 0000.0001) >#
(PID.TID 0000.0001) ># See src/ini_parms.F for possible parameters.
(PID.TID 0000.0001) >#
(PID.TID 0000.0001) ># Continuous equation parameters
(PID.TID 0000.0001) > &PARM01
(PID.TID 0000.0001) > tRefFile='Tref.bin'
(PID.TID 0000.0001) > sRef= 25*35.,
(PID.TID 0000.0001) > viscAz=1.E-5,
(PID.TID 0000.0001) > viscAh=1.E-4,
(PID.TID 0000.0001) > no_slip_sides=.FALSE.,
(PID.TID 0000.0001) > no_slip_bottom=.FALSE.,
(PID.TID 0000.0001) > viscA4=0.E12,
(PID.TID 0000.0001) > diffKhT=1.E-4,
(PID.TID 0000.0001) > diffKzT=1.E-5,
(PID.TID 0000.0001) > diffKhS=1.E3,
(PID.TID 0000.0001) > diffKzS=1.E-5,
(PID.TID 0000.0001) > f0=0.E-4,
(PID.TID 0000.0001) > beta=0.0E-11,
(PID.TID 0000.0001) > tAlpha=2.E-4,
(PID.TID 0000.0001) > sBeta =0.E-4,
(PID.TID 0000.0001) > gravity=9.81,
(PID.TID 0000.0001) > gBaro=9.81,
(PID.TID 0000.0001) > rigidLid=.FALSE.,
(PID.TID 0000.0001) > implicitFreeSurface=.TRUE.,
(PID.TID 0000.0001) > eosType='LINEAR',
(PID.TID 0000.0001) > nonHydrostatic=.FALSE.,
(PID.TID 0000.0001) > readBinaryPrec=64,
(PID.TID 0000.0001) > useSingleCpuIO=.TRUE.
(PID.TID 0000.0001) > writeBinaryPrec=64,
(PID.TID 0000.0001) > writeStatePrec=64,
(PID.TID 0000.0001) > saltStepping=.FALSE.,
(PID.TID 0000.0001) ># minimum cell fraction.  This reduces steppiness..
(PID.TID 0000.0001) >  hFacMin=0.1,
(PID.TID 0000.0001) >  exactConserv=.FALSE.,
(PID.TID 0000.0001) >  implicitDiffusion=.TRUE.
(PID.TID 0000.0001) >  implicitViscosity=.TRUE.
(PID.TID 0000.0001) ># Superbee on:
(PID.TID 0000.0001) > tempAdvScheme=77,
(PID.TID 0000.0001) > staggerTimeStep=.TRUE.,
(PID.TID 0000.0001) >/
(PID.TID 0000.0001) >
(PID.TID 0000.0001) ># Elliptic solver parameters
(PID.TID 0000.0001) > &PARM02
(PID.TID 0000.0001) > cg2dMaxIters=1000,
(PID.TID 0000.0001) > cg2dTargetResidual=1.E-13,
(PID.TID 0000.0001) > cg3dMaxIters=400,
(PID.TID 0000.0001) > cg3dTargetResidual=1.E-13,
(PID.TID 0000.0001) >/
(PID.TID 0000.0001) >
(PID.TID 0000.0001) ># Time stepping parameters
(PID.TID 0000.0001) > &PARM03
(PID.TID 0000.0001) > niter0=0,
(PID.TID 0000.0001) ># times are in s
(PID.TID 0000.0001) > startTime=0,
(PID.TID 0000.0001) > endTime=108000,
(PID.TID 0000.0001) > deltaT=15,
(PID.TID 0000.0001) > abEps=0.1,
(PID.TID 0000.0001) ># once per tide checkpoint...
(PID.TID 0000.0001) > pChkptFreq=21600,
(PID.TID 0000.0001) > chkptFreq=0.0,
(PID.TID 0000.0001) > dumpFreq=7200,
(PID.TID 0000.0001) > monitorFreq=7200,
(PID.TID 0000.0001) ># Forcing for boundary condition files
(PID.TID 0000.0001) > periodicExternalForcing=.FALSE.,
(PID.TID 0000.0001) >/
(PID.TID 0000.0001) >
(PID.TID 0000.0001) ># Gridding parameters
(PID.TID 0000.0001) > &PARM04
(PID.TID 0000.0001) > usingCartesianGrid=.TRUE.,
(PID.TID 0000.0001) > usingSphericalPolarGrid=.FALSE.,
(PID.TID 0000.0001) > delXfile='delXvar.bin',
(PID.TID 0000.0001) > delY=5.e3,
(PID.TID 0000.0001) > delRfile = 'delZvar.bin',
(PID.TID 0000.0001) >/
(PID.TID 0000.0001) >
(PID.TID 0000.0001) ># Input datasets
(PID.TID 0000.0001) > &PARM05
(PID.TID 0000.0001) > bathyFile='topo.bin',
(PID.TID 0000.0001) > hydrogThetaFile='T0.bin',
(PID.TID 0000.0001) > checkIniTemp=.FALSE.,
(PID.TID 0000.0001) > uVelInitFile='U0.bin',
(PID.TID 0000.0001) > /
(PID.TID 0000.0001) 
(PID.TID 0000.0001)  INI_PARMS ; starts to read PARM01
(PID.TID 0000.0001)  INI_PARMS ; read PARM01 : OK
(PID.TID 0000.0001)  INI_PARMS ; starts to read PARM02
(PID.TID 0000.0001)  INI_PARMS ; read PARM02 : OK
(PID.TID 0000.0001)  INI_PARMS ; starts to read PARM03
(PID.TID 0000.0001)  INI_PARMS ; read PARM03 : OK
(PID.TID 0000.0001)  INI_PARMS ; starts to read PARM04
(PID.TID 0000.0001)  INI_PARMS ; read PARM04 : OK
(PID.TID 0000.0001)  INI_PARMS ; starts to read PARM05
(PID.TID 0000.0001)  INI_PARMS ; read PARM05 : OK
(PID.TID 0000.0001)  INI_PARMS: finished reading file "data"
(PID.TID 0000.0001)  PACKAGES_BOOT: opening data.pkg
(PID.TID 0000.0001)  OPEN_COPY_DATA_FILE: opening file data.pkg
(PID.TID 0000.0001) // =======================================================
(PID.TID 0000.0001) // Parameter file "data.pkg"
(PID.TID 0000.0001) // =======================================================
(PID.TID 0000.0001) ># Packages
(PID.TID 0000.0001) > &PACKAGES
(PID.TID 0000.0001) > useOBCS=.TRUE.,
(PID.TID 0000.0001) > useKL10=.TRUE.,
(PID.TID 0000.0001) > useDIAGNOSTICS=.FALSE.,
(PID.TID 0000.0001) > useMNC=.FALSE.,
(PID.TID 0000.0001) > /
(PID.TID 0000.0001) 
(PID.TID 0000.0001)  PACKAGES_BOOT: finished reading data.pkg
(PID.TID 0000.0001)  PACKAGES_BOOT: On/Off package Summary
 --------  pkgs with a standard "usePKG" On/Off switch in "data.pkg":  --------
 pkg/obcs                 compiled   and   used ( useOBCS                  = T )
 pkg/kl10                 compiled   and   used ( useKL10                  = T )
 -------- pkgs without standard "usePKG" On/Off switch in "data.pkg":  --------
 pkg/generic_advdiff      compiled   and   used ( useGAD                   = T )
 pkg/mom_common           compiled   and   used ( momStepping              = T )
 pkg/mom_vecinv           compiled but not used ( +vectorInvariantMomentum = F )
 pkg/mom_fluxform         compiled   and   used ( & not vectorInvariantMom = T )
 pkg/monitor              compiled   and   used ( monitorFreq > 0.         = T )
 pkg/debug                compiled but not used ( debugMode                = F )
 pkg/rw                   compiled   and   used
 pkg/mdsio                compiled   and   used
(PID.TID 0000.0001)  PACKAGES_BOOT: End of package Summary
(PID.TID 0000.0001) 
(PID.TID 0000.0001)  OBCS_READPARMS: opening data.obcs
(PID.TID 0000.0001)  OPEN_COPY_DATA_FILE: opening file data.obcs
(PID.TID 0000.0001) // =======================================================
(PID.TID 0000.0001) // Parameter file "data.obcs"
(PID.TID 0000.0001) // =======================================================
(PID.TID 0000.0001) ># Open-boundaries
(PID.TID 0000.0001) > &OBCS_PARM01
(PID.TID 0000.0001) > OB_Iwest=1*1,
(PID.TID 0000.0001) > OB_Ieast=1*-1,
(PID.TID 0000.0001) > OB_Jnorth=100*0,
(PID.TID 0000.0001) > OB_Jsouth=100*0,
(PID.TID 0000.0001) > useOBCSsponge=.TRUE.,
(PID.TID 0000.0001) > OBEuFile='U_in.bin',
(PID.TID 0000.0001) > OBWuFile='U_in.bin',
(PID.TID 0000.0001) > OBEtFile='TE.bin',
(PID.TID 0000.0001) > OBWtFile='TW.bin',
(PID.TID 0000.0001) > useOBCSprescribe=.TRUE.,
(PID.TID 0000.0001) > /
(PID.TID 0000.0001) >
(PID.TID 0000.0001) ># Orlanski parameters
(PID.TID 0000.0001) > &OBCS_PARM02
(PID.TID 0000.0001) >/
(PID.TID 0000.0001) >
(PID.TID 0000.0001) ># Sponge layer parameters
(PID.TID 0000.0001) > &OBCS_PARM03
(PID.TID 0000.0001) > Urelaxobcsinner=1000.,
(PID.TID 0000.0001) > Urelaxobcsbound=100.,
(PID.TID 0000.0001) > Vrelaxobcsinner=1000.0,
(PID.TID 0000.0001) > Vrelaxobcsbound=100.0,
(PID.TID 0000.0001) > spongeThickness=10,
(PID.TID 0000.0001) > /
(PID.TID 0000.0001) 
(PID.TID 0000.0001)  OBCS_READPARMS: finished reading data.obcs
(PID.TID 0000.0001)  OB_indexUnset = /* unset OB index value (i.e. no OB) */
(PID.TID 0000.0001)                       0
(PID.TID 0000.0001)     ;
(PID.TID 0000.0001)  Northern OB global indices : OB_Jnorth =
(PID.TID 0000.0001)   200 @        0                            /* I =  1:200 */
(PID.TID 0000.0001)  Southern OB global indices : OB_Jsouth =
(PID.TID 0000.0001)   200 @        0                            /* I =  1:200 */
(PID.TID 0000.0001)  Eastern  OB global indices : OB_Ieast =
(PID.TID 0000.0001)                     200                     /* J =  1 */
(PID.TID 0000.0001)  Western  OB global indices : OB_Iwest =
(PID.TID 0000.0001)                       1                     /* J =  1 */
(PID.TID 0000.0001) 
(PID.TID 0000.0001)  KL10_READPARMS: opening data.kl10
(PID.TID 0000.0001)  OPEN_COPY_DATA_FILE: opening file data.kl10
(PID.TID 0000.0001) // =======================================================
(PID.TID 0000.0001) // Parameter file "data.kl10"
(PID.TID 0000.0001) // =======================================================
(PID.TID 0000.0001) ># =====================================================================
(PID.TID 0000.0001) ># | Parameters for Klymak and Legg (2010) vertical mixing scheme      |
(PID.TID 0000.0001) ># =====================================================================
(PID.TID 0000.0001) > &KL10_PARM01
(PID.TID 0000.0001) > KLwriteState=.TRUE.,
(PID.TID 0000.0001) >/
(PID.TID 0000.0001) 
(PID.TID 0000.0001)  KL10_READPARMS: finished reading data.kl10
(PID.TID 0000.0001) SET_PARMS: done
(PID.TID 0000.0001)  MDS_READVEC_LOC: open file: delXvar.bin
(PID.TID 0000.0001) S/R LOAD_GRID_SPACING: delX loaded from file: delXvar.bin
(PID.TID 0000.0001)  MDS_READVEC_LOC: open file: delZvar.bin
(PID.TID 0000.0001) S/R LOAD_GRID_SPACING: delR loaded from file: delZvar.bin
(PID.TID 0000.0001) Enter INI_VERTICAL_GRID: setInterFDr=    T ; setCenterDr=    F
(PID.TID 0000.0001) %MON XC_max                       =   9.9471849328752E+04
(PID.TID 0000.0001) %MON XC_min                       =   6.3164731900833E+02
(PID.TID 0000.0001) %MON XC_mean                      =   5.2906107272275E+04
(PID.TID 0000.0001) %MON XC_sd                        =   2.2139310392762E+04
(PID.TID 0000.0001) %MON XG_max                       =   9.8943698657505E+04
(PID.TID 0000.0001) %MON XG_min                       =   0.0000000000000E+00
(PID.TID 0000.0001) %MON XG_mean                      =   5.2656107272275E+04
(PID.TID 0000.0001) %MON XG_sd                        =   2.2172561685063E+04
(PID.TID 0000.0001) %MON DXC_max                      =   1.2503953509116E+03
(PID.TID 0000.0001) %MON DXC_min                      =   2.0000000000000E+02
(PID.TID 0000.0001) %MON DXC_mean                     =   5.0000000000000E+02
(PID.TID 0000.0001) %MON DXC_sd                       =   2.8531736750525E+02
(PID.TID 0000.0001) %MON DXF_max                      =   1.2632946380167E+03
(PID.TID 0000.0001) %MON DXF_min                      =   2.0000000000000E+02
(PID.TID 0000.0001) %MON DXF_mean                     =   5.0000000000000E+02
(PID.TID 0000.0001) %MON DXF_sd                       =   2.8547066202794E+02
(PID.TID 0000.0001) %MON DXG_max                      =   1.2632946380167E+03
(PID.TID 0000.0001) %MON DXG_min                      =   2.0000000000000E+02
(PID.TID 0000.0001) %MON DXG_mean                     =   5.0000000000000E+02
(PID.TID 0000.0001) %MON DXG_sd                       =   2.8547066202794E+02
(PID.TID 0000.0001) %MON DXV_max                      =   1.2503953509116E+03
(PID.TID 0000.0001) %MON DXV_min                      =   2.0000000000000E+02
(PID.TID 0000.0001) %MON DXV_mean                     =   5.0000000000000E+02
(PID.TID 0000.0001) %MON DXV_sd                       =   2.8531736750525E+02
(PID.TID 0000.0001) %MON YC_max                       =   2.5000000000000E+03
(PID.TID 0000.0001) %MON YC_min                       =   2.5000000000000E+03
(PID.TID 0000.0001) %MON YC_mean                      =   2.5000000000000E+03
(PID.TID 0000.0001) %MON YC_sd                        =   0.0000000000000E+00
(PID.TID 0000.0001) %MON YG_max                       =   0.0000000000000E+00
(PID.TID 0000.0001) %MON YG_min                       =   0.0000000000000E+00
(PID.TID 0000.0001) %MON YG_mean                      =   0.0000000000000E+00
(PID.TID 0000.0001) %MON YG_sd                        =   0.0000000000000E+00
(PID.TID 0000.0001) %MON DYC_max                      =   5.0000000000000E+03
(PID.TID 0000.0001) %MON DYC_min                      =   5.0000000000000E+03
(PID.TID 0000.0001) %MON DYC_mean                     =   5.0000000000000E+03
(PID.TID 0000.0001) %MON DYC_sd                       =   0.0000000000000E+00
(PID.TID 0000.0001) %MON DYF_max                      =   5.0000000000000E+03
(PID.TID 0000.0001) %MON DYF_min                      =   5.0000000000000E+03
(PID.TID 0000.0001) %MON DYF_mean                     =   5.0000000000000E+03
(PID.TID 0000.0001) %MON DYF_sd                       =   0.0000000000000E+00
(PID.TID 0000.0001) %MON DYG_max                      =   5.0000000000000E+03
(PID.TID 0000.0001) %MON DYG_min                      =   5.0000000000000E+03
(PID.TID 0000.0001) %MON DYG_mean                     =   5.0000000000000E+03
(PID.TID 0000.0001) %MON DYG_sd                       =   0.0000000000000E+00
(PID.TID 0000.0001) %MON DYU_max                      =   5.0000000000000E+03
(PID.TID 0000.0001) %MON DYU_min                      =   5.0000000000000E+03
(PID.TID 0000.0001) %MON DYU_mean                     =   5.0000000000000E+03
(PID.TID 0000.0001) %MON DYU_sd                       =   0.0000000000000E+00
(PID.TID 0000.0001) %MON RA_max                       =   6.3164731900833E+06
(PID.TID 0000.0001) %MON RA_min                       =   1.0000000000000E+06
(PID.TID 0000.0001) %MON RA_mean                      =   2.5000000000000E+06
(PID.TID 0000.0001) %MON RA_sd                        =   1.4273533101397E+06
(PID.TID 0000.0001) %MON RAW_max                      =   6.2519767545581E+06
(PID.TID 0000.0001) %MON RAW_min                      =   1.0000000000000E+06
(PID.TID 0000.0001) %MON RAW_mean                     =   2.5000000000000E+06
(PID.TID 0000.0001) %MON RAW_sd                       =   1.4265868375263E+06
(PID.TID 0000.0001) %MON RAS_max                      =   6.3164731900833E+06
(PID.TID 0000.0001) %MON RAS_min                      =   1.0000000000000E+06
(PID.TID 0000.0001) %MON RAS_mean                     =   2.5000000000000E+06
(PID.TID 0000.0001) %MON RAS_sd                       =   1.4273533101397E+06
(PID.TID 0000.0001) %MON RAZ_max                      =   6.2519767545581E+06
(PID.TID 0000.0001) %MON RAZ_min                      =   1.0000000000000E+06
(PID.TID 0000.0001) %MON RAZ_mean                     =   2.5000000000000E+06
(PID.TID 0000.0001) %MON RAZ_sd                       =   1.4265868375263E+06
(PID.TID 0000.0001) %MON AngleCS_max                  =   1.0000000000000E+00
(PID.TID 0000.0001) %MON AngleCS_min                  =   1.0000000000000E+00
(PID.TID 0000.0001) %MON AngleCS_mean                 =   1.0000000000000E+00
(PID.TID 0000.0001) %MON AngleCS_sd                   =   0.0000000000000E+00
(PID.TID 0000.0001) %MON AngleSN_max                  =   0.0000000000000E+00
(PID.TID 0000.0001) %MON AngleSN_min                  =   0.0000000000000E+00
(PID.TID 0000.0001) %MON AngleSN_mean                 =   0.0000000000000E+00
(PID.TID 0000.0001) %MON AngleSN_sd                   =   0.0000000000000E+00
(PID.TID 0000.0001)  MDS_READVEC_LOC: open file: Tref.bin
(PID.TID 0000.0001) S/R LOAD_REF_FILES: tRef loaded from file: Tref.bin
(PID.TID 0000.0001)  MDS_READ_FIELD: opening global file: topo.bin
(PID.TID 0000.0001) // =======================================================
(PID.TID 0000.0001) // Field Model R_low (ini_masks_etc)
(PID.TID 0000.0001) // CMIN =         -2.000000000000000E+02
(PID.TID 0000.0001) // CMAX =         -1.600000000000000E+02
(PID.TID 0000.0001) // CINT =          1.481481481481481E+00
(PID.TID 0000.0001) // SYMBOLS (CMIN->CMAX): -abcdefghijklmnopqrstuvwxyz+
(PID.TID 0000.0001) //                  0.0: .
(PID.TID 0000.0001) // RANGE I (Lo:Hi:Step):(    -1:   202:     1)
(PID.TID 0000.0001) // RANGE J (Lo:Hi:Step):(     3:    -1:    -1)
(PID.TID 0000.0001) // RANGE K (Lo:Hi:Step):(   1:   1:   1)
(PID.TID 0000.0001) // =======================================================
(PID.TID 0000.0001) K =   1
(PID.TID 0000.0001) //                I=8       I=18      I=28      I=38      I=48      I=58      I=68      I=78      I=88      I=98      I=108     I=118     I=128     I=138     I=148     I=158     I=168     I=178     I=188     I=198
(PID.TID 0000.0001) // |--J--|101234567|901234567|901234567|901234567|901234567|901234567|901234567|901234567|901234567|901234567|901234567|901234567|901234567|901234567|901234567|901234567|901234567|901234567|901234567|901234567|9012
(PID.TID 0000.0001) //      3 --------------------------------------------------------------------------aaaabbccdefghiklnpqstvwxyz++++zyxwvtsqpnlkihgfedccbbaaaa--------------------------------------------------------------------------
(PID.TID 0000.0001) //      2 --------------------------------------------------------------------------aaaabbccdefghiklnpqstvwxyz++++zyxwvtsqpnlkihgfedccbbaaaa--------------------------------------------------------------------------
(PID.TID 0000.0001) //      1 --------------------------------------------------------------------------aaaabbccdefghiklnpqstvwxyz++++zyxwvtsqpnlkihgfedccbbaaaa--------------------------------------------------------------------------
(PID.TID 0000.0001) //      0 --------------------------------------------------------------------------aaaabbccdefghiklnpqstvwxyz++++zyxwvtsqpnlkihgfedccbbaaaa--------------------------------------------------------------------------
(PID.TID 0000.0001) //     -1 --------------------------------------------------------------------------aaaabbccdefghiklnpqstvwxyz++++zyxwvtsqpnlkihgfedccbbaaaa--------------------------------------------------------------------------
(PID.TID 0000.0001) // =======================================================
(PID.TID 0000.0001) // END OF FIELD                                          =
(PID.TID 0000.0001) // =======================================================
(PID.TID 0000.0001) 
(PID.TID 0000.0001) // =======================================================
(PID.TID 0000.0001) // Field Model Ro_surf (ini_masks_etc)
(PID.TID 0000.0001) // CMIN =         -2.753353101070388E-14
(PID.TID 0000.0001) // CMAX =          8.615330671091215E-14
(PID.TID 0000.0001) // CINT =          4.210623619319112E-15
(PID.TID 0000.0001) // SYMBOLS (CMIN->CMAX): -abcdefghijklmnopqrstuvwxyz+
(PID.TID 0000.0001) //                  0.0: .
(PID.TID 0000.0001) // RANGE I (Lo:Hi:Step):(    -1:   202:     1)
(PID.TID 0000.0001) // RANGE J (Lo:Hi:Step):(     3:    -1:    -1)
(PID.TID 0000.0001) // RANGE K (Lo:Hi:Step):(   1:   1:   1)
(PID.TID 0000.0001) // =======================================================
(PID.TID 0000.0001) K =   1
(PID.TID 0000.0001) //                I=8       I=18      I=28      I=38      I=48      I=58      I=68      I=78      I=88      I=98      I=108     I=118     I=128     I=138     I=148     I=158     I=168     I=178     I=188     I=198
(PID.TID 0000.0001) // |--J--|101234567|901234567|901234567|901234567|901234567|901234567|901234567|901234567|901234567|901234567|901234567|901234567|901234567|901234567|901234567|901234567|901234567|901234567|901234567|901234567|9012
(PID.TID 0000.0001) //      3 ------------------g-g-gg--g---g-g-g-g--ggg---g-g-ggg---gggggg--g-g------gnngggg-gngggggnn+ttttng------------gntttt+nngggggng-ggggnng------g-g--gggggg---ggg-g-g---ggg--g-g-g-g---g--gg-g-g------------------
(PID.TID 0000.0001) //      2 ------------------g-g-gg--g---g-g-g-g--ggg---g-g-ggg---gggggg--g-g------gnngggg-gngggggnn+ttttng------------gntttt+nngggggng-ggggnng------g-g--gggggg---ggg-g-g---ggg--g-g-g-g---g--gg-g-g------------------
(PID.TID 0000.0001) //      1 ------------------g-g-gg--g---g-g-g-g--ggg---g-g-ggg---gggggg--g-g------gnngggg-gngggggnn+ttttng------------gntttt+nngggggng-ggggnng------g-g--gggggg---ggg-g-g---ggg--g-g-g-g---g--gg-g-g------------------
(PID.TID 0000.0001) //      0 ------------------g-g-gg--g---g-g-g-g--ggg---g-g-ggg---gggggg--g-g------gnngggg-gngggggnn+ttttng------------gntttt+nngggggng-ggggnng------g-g--gggggg---ggg-g-g---ggg--g-g-g-g---g--gg-g-g------------------
(PID.TID 0000.0001) //     -1 ------------------g-g-gg--g---g-g-g-g--ggg---g-g-ggg---gggggg--g-g------gnngggg-gngggggnn+ttttng------------gntttt+nngggggng-ggggnng------g-g--gggggg---ggg-g-g---ggg--g-g-g-g---g--gg-g-g------------------
(PID.TID 0000.0001) // =======================================================
(PID.TID 0000.0001) // END OF FIELD                                          =
(PID.TID 0000.0001) // =======================================================
(PID.TID 0000.0001) 
(PID.TID 0000.0001) // =======================================================
(PID.TID 0000.0001) // Field hFacC at iteration          0
(PID.TID 0000.0001) // CMIN =          1.000000000000000E+00
(PID.TID 0000.0001) // CMAX =          1.000000000000000E+00
(PID.TID 0000.0001) // CINT =          0.000000000000000E+00
(PID.TID 0000.0001) // SYMBOLS (CMIN->CMAX): -abcdefghijklmnopqrstuvwxyz+
(PID.TID 0000.0001) //                  0.0: .
(PID.TID 0000.0001) // RANGE I (Lo:Hi:Step):(    -1:   202:     1)
(PID.TID 0000.0001) // RANGE J (Lo:Hi:Step):(     3:    -1:    -1)
(PID.TID 0000.0001) // RANGE K (Lo:Hi:Step):(   1:   1:   1)
(PID.TID 0000.0001) // =======================================================
(PID.TID 0000.0001) // =======================================================
(PID.TID 0000.0001) // END OF FIELD                                          =
(PID.TID 0000.0001) // =======================================================
(PID.TID 0000.0001) 
(PID.TID 0000.0001) // =======================================================
(PID.TID 0000.0001) // Field hFacW at iteration          0
(PID.TID 0000.0001) // CMIN =          1.000000000000000E+00
(PID.TID 0000.0001) // CMAX =          1.000000000000000E+00
(PID.TID 0000.0001) // CINT =          0.000000000000000E+00
(PID.TID 0000.0001) // SYMBOLS (CMIN->CMAX): -abcdefghijklmnopqrstuvwxyz+
(PID.TID 0000.0001) //                  0.0: .
(PID.TID 0000.0001) // RANGE I (Lo:Hi:Step):(    -1:   202:     1)
(PID.TID 0000.0001) // RANGE J (Lo:Hi:Step):(     3:    -1:    -1)
(PID.TID 0000.0001) // RANGE K (Lo:Hi:Step):(   1:   1:   1)
(PID.TID 0000.0001) // =======================================================
(PID.TID 0000.0001) // =======================================================
(PID.TID 0000.0001) // END OF FIELD                                          =
(PID.TID 0000.0001) // =======================================================
(PID.TID 0000.0001) 
(PID.TID 0000.0001) // =======================================================
(PID.TID 0000.0001) // Field hFacS at iteration          0
(PID.TID 0000.0001) // CMIN =          1.000000000000000E+00
(PID.TID 0000.0001) // CMAX =          1.000000000000000E+00
(PID.TID 0000.0001) // CINT =          0.000000000000000E+00
(PID.TID 0000.0001) // SYMBOLS (CMIN->CMAX): -abcdefghijklmnopqrstuvwxyz+
(PID.TID 0000.0001) //                  0.0: .
(PID.TID 0000.0001) // RANGE I (Lo:Hi:Step):(    -1:   202:     1)
(PID.TID 0000.0001) // RANGE J (Lo:Hi:Step):(     3:    -1:    -1)
(PID.TID 0000.0001) // RANGE K (Lo:Hi:Step):(   1:   1:   1)
(PID.TID 0000.0001) // =======================================================
(PID.TID 0000.0001) // =======================================================
(PID.TID 0000.0001) // END OF FIELD                                          =
(PID.TID 0000.0001) // =======================================================
(PID.TID 0000.0001) 
(PID.TID 0000.0001) GAD_INIT_FIXED: GAD_OlMinSize=  2  0  1
(PID.TID 0000.0001) 
(PID.TID 0000.0001) // ===================================
(PID.TID 0000.0001) // GAD parameters :
(PID.TID 0000.0001) // ===================================
(PID.TID 0000.0001) tempAdvScheme =   /* Temp. Horiz.Advection scheme selector */
(PID.TID 0000.0001)                      77
(PID.TID 0000.0001)     ;
(PID.TID 0000.0001) tempVertAdvScheme =   /* Temp. Vert. Advection scheme selector */
(PID.TID 0000.0001)                      77
(PID.TID 0000.0001)     ;
(PID.TID 0000.0001) tempMultiDimAdvec =   /* use Muti-Dim Advec method for Temp */
(PID.TID 0000.0001)                   T
(PID.TID 0000.0001)     ;
(PID.TID 0000.0001) tempSOM_Advection = /* use 2nd Order Moment Advection for Temp */
(PID.TID 0000.0001)                   F
(PID.TID 0000.0001)     ;
(PID.TID 0000.0001) AdamsBashforthGt = /* apply Adams-Bashforth extrapolation on Gt */
(PID.TID 0000.0001)                   F
(PID.TID 0000.0001)     ;
(PID.TID 0000.0001) AdamsBashforth_T = /* apply Adams-Bashforth extrapolation on Temp */
(PID.TID 0000.0001)                   F
(PID.TID 0000.0001)     ;
(PID.TID 0000.0001) saltAdvScheme =   /* Salt. Horiz.advection scheme selector */
(PID.TID 0000.0001)                       2
(PID.TID 0000.0001)     ;
(PID.TID 0000.0001) saltVertAdvScheme =   /* Salt. Vert. Advection scheme selector */
(PID.TID 0000.0001)                       2
(PID.TID 0000.0001)     ;
(PID.TID 0000.0001) saltMultiDimAdvec =   /* use Muti-Dim Advec method for Salt */
(PID.TID 0000.0001)                   F
(PID.TID 0000.0001)     ;
(PID.TID 0000.0001) saltSOM_Advection = /* use 2nd Order Moment Advection for Salt */
(PID.TID 0000.0001)                   F
(PID.TID 0000.0001)     ;
(PID.TID 0000.0001) AdamsBashforthGs = /* apply Adams-Bashforth extrapolation on Gs */
(PID.TID 0000.0001)                   F
(PID.TID 0000.0001)     ;
(PID.TID 0000.0001) AdamsBashforth_S = /* apply Adams-Bashforth extrapolation on Salt */
(PID.TID 0000.0001)                   F
(PID.TID 0000.0001)     ;
(PID.TID 0000.0001) // ===================================
(PID.TID 0000.0001) %MON fCori_max                    =   0.0000000000000E+00
(PID.TID 0000.0001) %MON fCori_min                    =   0.0000000000000E+00
(PID.TID 0000.0001) %MON fCori_mean                   =   0.0000000000000E+00
(PID.TID 0000.0001) %MON fCori_sd                     =   0.0000000000000E+00
(PID.TID 0000.0001) %MON fCoriG_max                   =   0.0000000000000E+00
(PID.TID 0000.0001) %MON fCoriG_min                   =   0.0000000000000E+00
(PID.TID 0000.0001) %MON fCoriG_mean                  =   0.0000000000000E+00
(PID.TID 0000.0001) %MON fCoriG_sd                    =   0.0000000000000E+00
(PID.TID 0000.0001) %MON fCoriCos_max                 =   0.0000000000000E+00
(PID.TID 0000.0001) %MON fCoriCos_min                 =   0.0000000000000E+00
(PID.TID 0000.0001) %MON fCoriCos_mean                =   0.0000000000000E+00
(PID.TID 0000.0001) %MON fCoriCos_sd                  =   0.0000000000000E+00
(PID.TID 0000.0001) INI_CG2D: CG2D normalisation factor =  2.0891347990989188E-04
(PID.TID 0000.0001) 
(PID.TID 0000.0001) // =======================================================
(PID.TID 0000.0001) // Model configuration
(PID.TID 0000.0001) // =======================================================
(PID.TID 0000.0001) //
(PID.TID 0000.0001) // "Physical" paramters ( PARM01 in namelist )
(PID.TID 0000.0001) //
(PID.TID 0000.0001) buoyancyRelation = /* Type of relation to get Buoyancy */
(PID.TID 0000.0001)               'OCEANIC'
(PID.TID 0000.0001)     ;
(PID.TID 0000.0001) fluidIsAir   =  /* fluid major constituent is Air */
(PID.TID 0000.0001)                   F
(PID.TID 0000.0001)     ;
(PID.TID 0000.0001) fluidIsWater =  /* fluid major constituent is Water */
(PID.TID 0000.0001)                   T
(PID.TID 0000.0001)     ;
(PID.TID 0000.0001) usingPCoords =  /* use p (or p*) vertical coordinate */
(PID.TID 0000.0001)                   F
(PID.TID 0000.0001)     ;
(PID.TID 0000.0001) usingZCoords =  /* use z (or z*) vertical coordinate */
(PID.TID 0000.0001)                   T
(PID.TID 0000.0001)     ;
(PID.TID 0000.0001) tRef =   /* Reference temperature profile ( oC or K ) */
(PID.TID 0000.0001)     6 @  1.500000000000000E+01,             /* K =  1:  6 */
(PID.TID 0000.0001)                 1.499933084687693E+01,      /* K =  7 */
(PID.TID 0000.0001)                 1.497717153877677E+01,      /* K =  8 */
(PID.TID 0000.0001)                 1.470721590167325E+01,      /* K =  9 */
(PID.TID 0000.0001)                 1.349735867339025E+01,      /* K = 10 */
(PID.TID 0000.0001)                 1.150264132660976E+01,      /* K = 11 */
(PID.TID 0000.0001)                 1.029278409832675E+01,      /* K = 12 */
(PID.TID 0000.0001)                 1.002282846122323E+01,      /* K = 13 */
(PID.TID 0000.0001)                 1.000066915312308E+01,      /* K = 14 */
(PID.TID 0000.0001)    86 @  1.000000000000000E+01              /* K = 15:100 */
(PID.TID 0000.0001)     ;
(PID.TID 0000.0001) sRef =   /* Reference salinity profile ( psu ) */
(PID.TID 0000.0001)   100 @  3.500000000000000E+01              /* K =  1:100 */
(PID.TID 0000.0001)     ;
(PID.TID 0000.0001) useStrainTensionVisc= /* Use StrainTension Form of Viscous Operator */
(PID.TID 0000.0001)                   F
(PID.TID 0000.0001)     ;
(PID.TID 0000.0001) useVariableVisc = /* Use variable horizontal viscosity */
(PID.TID 0000.0001)                   F
(PID.TID 0000.0001)     ;
(PID.TID 0000.0001) useHarmonicVisc = /* Use harmonic horizontal viscosity */
(PID.TID 0000.0001)                   T
(PID.TID 0000.0001)     ;
(PID.TID 0000.0001) useBiharmonicVisc= /* Use biharmonic horiz.  viscosity */
(PID.TID 0000.0001)                   F
(PID.TID 0000.0001)     ;
(PID.TID 0000.0001) useSmag3D = /* Use isotropic 3-D Smagorinsky viscosity */
(PID.TID 0000.0001)                   F
(PID.TID 0000.0001)     ;
(PID.TID 0000.0001) viscAh  =   /* Lateral harmonic viscosity ( m^2/s ) */
(PID.TID 0000.0001)                 1.000000000000000E-04
(PID.TID 0000.0001)     ;
(PID.TID 0000.0001) viscA4  =   /* Lateral biharmonic viscosity ( m^4/s ) */
(PID.TID 0000.0001)                 0.000000000000000E+00
(PID.TID 0000.0001)     ;
(PID.TID 0000.0001) no_slip_sides =  /* Viscous BCs: No-slip sides */
(PID.TID 0000.0001)                   F
(PID.TID 0000.0001)     ;
(PID.TID 0000.0001) sideDragFactor = /* side-drag scaling factor (non-dim) */
(PID.TID 0000.0001)                 2.000000000000000E+00
(PID.TID 0000.0001)     ;
(PID.TID 0000.0001) viscArNr = /* vertical profile of vertical viscosity ( m^2/s )*/
(PID.TID 0000.0001)   100 @  1.000000000000000E-05              /* K =  1:100 */
(PID.TID 0000.0001)     ;
(PID.TID 0000.0001) no_slip_bottom =  /* Viscous BCs: No-slip bottom */
(PID.TID 0000.0001)                   F
(PID.TID 0000.0001)     ;
(PID.TID 0000.0001) bottomDragLinear = /* linear bottom-drag coefficient ( m/s ) */
(PID.TID 0000.0001)                 0.000000000000000E+00
(PID.TID 0000.0001)     ;
(PID.TID 0000.0001) bottomDragQuadratic = /* quadratic bottom-drag coefficient (-) */
(PID.TID 0000.0001)                 0.000000000000000E+00
(PID.TID 0000.0001)     ;
(PID.TID 0000.0001) diffKhT =   /* Laplacian diffusion of heat laterally ( m^2/s ) */
(PID.TID 0000.0001)                 1.000000000000000E-04
(PID.TID 0000.0001)     ;
(PID.TID 0000.0001) diffK4T =   /* Biharmonic diffusion of heat laterally ( m^4/s ) */
(PID.TID 0000.0001)                 0.000000000000000E+00
(PID.TID 0000.0001)     ;
(PID.TID 0000.0001) diffKhS =   /* Laplacian diffusion of salt laterally ( m^2/s ) */
(PID.TID 0000.0001)                 1.000000000000000E+03
(PID.TID 0000.0001)     ;
(PID.TID 0000.0001) diffK4S =   /* Biharmonic diffusion of salt laterally ( m^4/s ) */
(PID.TID 0000.0001)                 0.000000000000000E+00
(PID.TID 0000.0001)     ;
(PID.TID 0000.0001) diffKrNrT = /* vertical profile of vertical diffusion of Temp ( m^2/s )*/
(PID.TID 0000.0001)   100 @  1.000000000000000E-05              /* K =  1:100 */
(PID.TID 0000.0001)     ;
(PID.TID 0000.0001) diffKrNrS = /* vertical profile of vertical diffusion of Salt ( m^2/s )*/
(PID.TID 0000.0001)   100 @  1.000000000000000E-05              /* K =  1:100 */
(PID.TID 0000.0001)     ;
(PID.TID 0000.0001) diffKrBL79surf = /* Surface diffusion for Bryan and Lewis 79 ( m^2/s ) */
(PID.TID 0000.0001)                 0.000000000000000E+00
(PID.TID 0000.0001)     ;
(PID.TID 0000.0001) diffKrBL79deep = /* Deep diffusion for Bryan and Lewis 1979 ( m^2/s ) */
(PID.TID 0000.0001)                 0.000000000000000E+00
(PID.TID 0000.0001)     ;
(PID.TID 0000.0001) diffKrBL79scl = /* Depth scale for Bryan and Lewis 1979 ( m ) */
(PID.TID 0000.0001)                 2.000000000000000E+02
(PID.TID 0000.0001)     ;
(PID.TID 0000.0001) diffKrBL79Ho = /* Turning depth for Bryan and Lewis 1979 ( m ) */
(PID.TID 0000.0001)                -2.000000000000000E+03
(PID.TID 0000.0001)     ;
(PID.TID 0000.0001) ivdc_kappa = /* Implicit Vertical Diffusivity for Convection ( m^2/s) */
(PID.TID 0000.0001)                 0.000000000000000E+00
(PID.TID 0000.0001)     ;
(PID.TID 0000.0001) hMixCriteria=  /* Criteria for mixed-layer diagnostic */
(PID.TID 0000.0001)                -8.000000000000000E-01
(PID.TID 0000.0001)     ;
(PID.TID 0000.0001) dRhoSmall =  /* Parameter for mixed-layer diagnostic */
(PID.TID 0000.0001)                 1.000000000000000E-06
(PID.TID 0000.0001)     ;
(PID.TID 0000.0001) hMixSmooth=  /* Smoothing parameter for mixed-layer diagnostic */
(PID.TID 0000.0001)                 0.000000000000000E+00
(PID.TID 0000.0001)     ;
(PID.TID 0000.0001) eosType =  /* Type of Equation of State */
(PID.TID 0000.0001)               'LINEAR'
(PID.TID 0000.0001)     ;
(PID.TID 0000.0001) tAlpha = /* Linear EOS thermal expansion coefficient ( 1/oC ) */
(PID.TID 0000.0001)                 2.000000000000000E-04
(PID.TID 0000.0001)     ;
(PID.TID 0000.0001) sBeta  = /* Linear EOS haline contraction coefficient ( 1/psu ) */
(PID.TID 0000.0001)                 0.000000000000000E+00
(PID.TID 0000.0001)     ;
(PID.TID 0000.0001) rhoNil    = /* Reference density for Linear EOS ( kg/m^3 ) */
(PID.TID 0000.0001)                 9.998000000000000E+02
(PID.TID 0000.0001)     ;
(PID.TID 0000.0001) HeatCapacity_Cp =  /* Specific heat capacity ( J/kg/K ) */
(PID.TID 0000.0001)                 3.994000000000000E+03
(PID.TID 0000.0001)     ;
(PID.TID 0000.0001) celsius2K = /* 0 degree Celsius converted to Kelvin ( K ) */
(PID.TID 0000.0001)                 2.731500000000000E+02
(PID.TID 0000.0001)     ;
(PID.TID 0000.0001) rhoConst  = /* Reference density (Boussinesq)  ( kg/m^3 ) */
(PID.TID 0000.0001)                 9.998000000000000E+02
(PID.TID 0000.0001)     ;
(PID.TID 0000.0001) rhoFacC = /* normalized Reference density @ cell-Center (-) */
(PID.TID 0000.0001)   100 @  1.000000000000000E+00              /* K =  1:100 */
(PID.TID 0000.0001)     ;
(PID.TID 0000.0001) rhoFacF = /* normalized Reference density @ W-Interface (-) */
(PID.TID 0000.0001)   101 @  1.000000000000000E+00              /* K =  1:101 */
(PID.TID 0000.0001)     ;
(PID.TID 0000.0001) rhoConstFresh = /* Fresh-water reference density ( kg/m^3 ) */
(PID.TID 0000.0001)                 9.998000000000000E+02
(PID.TID 0000.0001)     ;
(PID.TID 0000.0001) gravity =   /* Gravitational acceleration ( m/s^2 ) */
(PID.TID 0000.0001)                 9.810000000000000E+00
(PID.TID 0000.0001)     ;
(PID.TID 0000.0001) gBaro =   /* Barotropic gravity ( m/s^2 ) */
(PID.TID 0000.0001)                 9.810000000000000E+00
(PID.TID 0000.0001)     ;
(PID.TID 0000.0001) rotationPeriod =   /* Rotation Period ( s ) */
(PID.TID 0000.0001)                 8.616400000000000E+04
(PID.TID 0000.0001)     ;
(PID.TID 0000.0001) omega =   /* Angular velocity ( rad/s ) */
(PID.TID 0000.0001)                 7.292123516990375E-05
(PID.TID 0000.0001)     ;
(PID.TID 0000.0001) f0 =   /* Reference coriolis parameter ( 1/s ) */
(PID.TID 0000.0001)                 0.000000000000000E+00
(PID.TID 0000.0001)     ;
(PID.TID 0000.0001) beta =   /* Beta ( 1/(m.s) ) */
(PID.TID 0000.0001)                 0.000000000000000E+00
(PID.TID 0000.0001)     ;
(PID.TID 0000.0001) fPrime =   /* Second coriolis parameter ( 1/s ) */
(PID.TID 0000.0001)                 0.000000000000000E+00
(PID.TID 0000.0001)     ;
(PID.TID 0000.0001) rigidLid =   /* Rigid lid on/off flag */
(PID.TID 0000.0001)                   F
(PID.TID 0000.0001)     ;
(PID.TID 0000.0001) implicitFreeSurface =   /* Implicit free surface on/off flag */
(PID.TID 0000.0001)                   T
(PID.TID 0000.0001)     ;
(PID.TID 0000.0001) freeSurfFac =   /* Implicit free surface factor */
(PID.TID 0000.0001)                 1.000000000000000E+00
(PID.TID 0000.0001)     ;
(PID.TID 0000.0001) implicSurfPress =  /* Surface Pressure implicit factor (0-1)*/
(PID.TID 0000.0001)                 1.000000000000000E+00
(PID.TID 0000.0001)     ;
(PID.TID 0000.0001) implicDiv2Dflow =  /* Barot. Flow Div. implicit factor (0-1)*/
(PID.TID 0000.0001)                 1.000000000000000E+00
(PID.TID 0000.0001)     ;
(PID.TID 0000.0001) uniformLin_PhiSurf = /* use uniform Bo_surf on/off flag*/
(PID.TID 0000.0001)                   T
(PID.TID 0000.0001)     ;
(PID.TID 0000.0001) uniformFreeSurfLev = /* free-surface level-index is uniform */
(PID.TID 0000.0001)                   T
(PID.TID 0000.0001)     ;
(PID.TID 0000.0001) hFacMin =   /* minimum partial cell factor (hFac) */
(PID.TID 0000.0001)                 1.000000000000000E-01
(PID.TID 0000.0001)     ;
(PID.TID 0000.0001) hFacMinDr = /* minimum partial cell thickness ( m) */
(PID.TID 0000.0001)                 0.000000000000000E+00
(PID.TID 0000.0001)     ;
(PID.TID 0000.0001) exactConserv =  /* Exact Volume Conservation on/off flag*/
(PID.TID 0000.0001)                   F
(PID.TID 0000.0001)     ;
(PID.TID 0000.0001) linFSConserveTr = /* Tracer correction for Lin Free Surface on/off flag*/
(PID.TID 0000.0001)                   F
(PID.TID 0000.0001)     ;
(PID.TID 0000.0001) nonlinFreeSurf = /* Non-linear Free Surf. options (-1,0,1,2,3)*/
(PID.TID 0000.0001)                       0
(PID.TID 0000.0001)      -1,0= Off ; 1,2,3= On, 2=+rescale gU,gV, 3=+update cg2d solv.
(PID.TID 0000.0001)     ;
(PID.TID 0000.0001) hFacInf =   /* lower threshold for hFac (nonlinFreeSurf only)*/
(PID.TID 0000.0001)                 2.000000000000000E-01
(PID.TID 0000.0001)     ;
(PID.TID 0000.0001) hFacSup =   /* upper threshold for hFac (nonlinFreeSurf only)*/
(PID.TID 0000.0001)                 2.000000000000000E+00
(PID.TID 0000.0001)     ;
(PID.TID 0000.0001) select_rStar = /* r* Vertical coord. options (=0 r coord.; >0 uses r*)*/
(PID.TID 0000.0001)                       0
(PID.TID 0000.0001)     ;
(PID.TID 0000.0001) useRealFreshWaterFlux = /* Real Fresh Water Flux on/off flag*/
(PID.TID 0000.0001)                   F
(PID.TID 0000.0001)     ;
(PID.TID 0000.0001) temp_EvPrRn = /* Temp. of Evap/Prec/R (UNSET=use local T)(oC)*/
(PID.TID 0000.0001)                 1.234567000000000E+05
(PID.TID 0000.0001)     ;
(PID.TID 0000.0001) salt_EvPrRn = /* Salin. of Evap/Prec/R (UNSET=use local S)(psu)*/
(PID.TID 0000.0001)                 0.000000000000000E+00
(PID.TID 0000.0001)     ;
(PID.TID 0000.0001) selectAddFluid = /* option for mass source/sink of fluid (=0: off) */
(PID.TID 0000.0001)                       0
(PID.TID 0000.0001)     ;
(PID.TID 0000.0001) temp_addMass = /* Temp. of addMass array (UNSET=use local T)(oC)*/
(PID.TID 0000.0001)                 1.234567000000000E+05
(PID.TID 0000.0001)     ;
(PID.TID 0000.0001) salt_addMass = /* Salin. of addMass array (UNSET=use local S)(psu)*/
(PID.TID 0000.0001)                 0.000000000000000E+00
(PID.TID 0000.0001)     ;
(PID.TID 0000.0001) convertFW2Salt = /* convert F.W. Flux to Salt Flux (-1=use local S)(psu)*/
(PID.TID 0000.0001)                 3.500000000000000E+01
(PID.TID 0000.0001)     ;
(PID.TID 0000.0001) use3Dsolver = /* use 3-D pressure solver on/off flag */
(PID.TID 0000.0001)                   F
(PID.TID 0000.0001)     ;
(PID.TID 0000.0001) nonHydrostatic =  /* Non-Hydrostatic on/off flag */
(PID.TID 0000.0001)                   F
(PID.TID 0000.0001)     ;
(PID.TID 0000.0001) nh_Am2 = /* Non-Hydrostatic terms scaling factor */
(PID.TID 0000.0001)                 1.000000000000000E+00
(PID.TID 0000.0001)     ;
(PID.TID 0000.0001) implicitNHPress = /* Non-Hyd Pressure implicit factor (0-1)*/
(PID.TID 0000.0001)                 1.000000000000000E+00
(PID.TID 0000.0001)     ;
(PID.TID 0000.0001) selectNHfreeSurf = /* Non-Hyd (free-)Surface option */
(PID.TID 0000.0001)                       0
(PID.TID 0000.0001)     ;
(PID.TID 0000.0001) quasiHydrostatic = /* Quasi-Hydrostatic on/off flag */
(PID.TID 0000.0001)                   F
(PID.TID 0000.0001)     ;
(PID.TID 0000.0001) calc_wVelocity = /* vertical velocity calculation on/off flag */
(PID.TID 0000.0001)                   T
(PID.TID 0000.0001)     ;
(PID.TID 0000.0001) momStepping =  /* Momentum equation on/off flag */
(PID.TID 0000.0001)                   T
(PID.TID 0000.0001)     ;
(PID.TID 0000.0001) vectorInvariantMomentum= /* Vector-Invariant Momentum on/off */
(PID.TID 0000.0001)                   F
(PID.TID 0000.0001)     ;
(PID.TID 0000.0001) momAdvection =  /* Momentum advection on/off flag */
(PID.TID 0000.0001)                   T
(PID.TID 0000.0001)     ;
(PID.TID 0000.0001) momViscosity =  /* Momentum viscosity on/off flag */
(PID.TID 0000.0001)                   T
(PID.TID 0000.0001)     ;
(PID.TID 0000.0001) momImplVertAdv= /* Momentum implicit vert. advection on/off*/
(PID.TID 0000.0001)                   F
(PID.TID 0000.0001)     ;
(PID.TID 0000.0001) implicitViscosity = /* Implicit viscosity on/off flag */
(PID.TID 0000.0001)                   T
(PID.TID 0000.0001)     ;
(PID.TID 0000.0001) metricTerms =  /* metric-Terms on/off flag */
(PID.TID 0000.0001)                   F
(PID.TID 0000.0001)     ;
(PID.TID 0000.0001) useNHMTerms = /* Non-Hydrostatic Metric-Terms on/off */
(PID.TID 0000.0001)                   F
(PID.TID 0000.0001)     ;
(PID.TID 0000.0001) selectCoriMap = /* Coriolis Map options (0,1,2,3)*/
(PID.TID 0000.0001)                       1
(PID.TID 0000.0001)     0= f-Plane ; 1= Beta-Plane ; 2= Spherical ; 3= read from file
(PID.TID 0000.0001)     ;
(PID.TID 0000.0001) use3dCoriolis = /* 3-D Coriolis on/off flag */
(PID.TID 0000.0001)                   F
(PID.TID 0000.0001)     ;
(PID.TID 0000.0001) useCoriolis =  /* Coriolis on/off flag */
(PID.TID 0000.0001)                   T
(PID.TID 0000.0001)     ;
(PID.TID 0000.0001) useCDscheme =  /* CD scheme on/off flag */
(PID.TID 0000.0001)                   F
(PID.TID 0000.0001)     ;
(PID.TID 0000.0001) useEnergyConservingCoriolis= /* Flx-Form Coriolis scheme flag */
(PID.TID 0000.0001)                   F
(PID.TID 0000.0001)     ;
(PID.TID 0000.0001) useJamartWetPoints= /* Coriolis WetPoints method flag */
(PID.TID 0000.0001)                   F
(PID.TID 0000.0001)     ;
(PID.TID 0000.0001) useJamartMomAdv= /* V.I Non-linear terms Jamart flag */
(PID.TID 0000.0001)                   F
(PID.TID 0000.0001)     ;
(PID.TID 0000.0001) useAbsVorticity= /* V.I Works with f+zeta in Coriolis */
(PID.TID 0000.0001)                   F
(PID.TID 0000.0001)     ;
(PID.TID 0000.0001) selectVortScheme= /* V.I Scheme selector for Vorticity-Term */
(PID.TID 0000.0001)               123456789
(PID.TID 0000.0001)    = 0 : enstrophy (Shallow-Water Eq.) conserving scheme by Sadourny, JAS 75
(PID.TID 0000.0001)    = 1 : same as 0 with modified hFac
(PID.TID 0000.0001)    = 2 : energy conserving scheme (used by Sadourny in JAS 75 paper)
(PID.TID 0000.0001)    = 3 : energy (general) and enstrophy (2D, nonDiv.) conserving scheme
(PID.TID 0000.0001)          from Sadourny (Burridge & Haseler, ECMWF Rep.4, 1977)
(PID.TID 0000.0001)     ;
(PID.TID 0000.0001) upwindVorticity= /* V.I Upwind bias vorticity flag */
(PID.TID 0000.0001)                   F
(PID.TID 0000.0001)     ;
(PID.TID 0000.0001) highOrderVorticity= /* V.I High order vort. advect. flag */
(PID.TID 0000.0001)                   F
(PID.TID 0000.0001)     ;
(PID.TID 0000.0001) upwindShear= /* V.I Upwind vertical Shear advection flag */
(PID.TID 0000.0001)                   F
(PID.TID 0000.0001)     ;
(PID.TID 0000.0001) selectKEscheme= /* V.I Kinetic Energy scheme selector */
(PID.TID 0000.0001)                       0
(PID.TID 0000.0001)     ;
(PID.TID 0000.0001) momForcing =  /* Momentum forcing on/off flag */
(PID.TID 0000.0001)                   T
(PID.TID 0000.0001)     ;
(PID.TID 0000.0001) momPressureForcing =  /* Momentum pressure term on/off flag */
(PID.TID 0000.0001)                   T
(PID.TID 0000.0001)     ;
(PID.TID 0000.0001) implicitIntGravWave= /* Implicit Internal Gravity Wave flag */
(PID.TID 0000.0001)                   F
(PID.TID 0000.0001)     ;
(PID.TID 0000.0001) staggerTimeStep =    /* Stagger time stepping on/off flag */
(PID.TID 0000.0001)                   T
(PID.TID 0000.0001)     ;
(PID.TID 0000.0001) doResetHFactors = /* reset thickness factors @ each time-step */
(PID.TID 0000.0001)                   F
(PID.TID 0000.0001)     ;
(PID.TID 0000.0001) multiDimAdvection =  /* enable/disable Multi-Dim Advection */
(PID.TID 0000.0001)                   T
(PID.TID 0000.0001)     ;
(PID.TID 0000.0001) useMultiDimAdvec =   /* Multi-Dim Advection is/is-not used */
(PID.TID 0000.0001)                   T
(PID.TID 0000.0001)     ;
(PID.TID 0000.0001) implicitDiffusion = /* Implicit Diffusion on/off flag */
(PID.TID 0000.0001)                   T
(PID.TID 0000.0001)     ;
(PID.TID 0000.0001) tempStepping =  /* Temperature equation on/off flag */
(PID.TID 0000.0001)                   T
(PID.TID 0000.0001)     ;
(PID.TID 0000.0001) tempAdvection = /* Temperature advection on/off flag */
(PID.TID 0000.0001)                   T
(PID.TID 0000.0001)     ;
(PID.TID 0000.0001) tempImplVertAdv = /* Temp. implicit vert. advection on/off */
(PID.TID 0000.0001)                   F
(PID.TID 0000.0001)     ;
(PID.TID 0000.0001) tempForcing  =  /* Temperature forcing on/off flag */
(PID.TID 0000.0001)                   T
(PID.TID 0000.0001)     ;
(PID.TID 0000.0001) doThetaClimRelax = /* apply SST relaxation on/off flag */
(PID.TID 0000.0001)                   F
(PID.TID 0000.0001)     ;
(PID.TID 0000.0001) tempIsActiveTr = /* Temp. is a dynamically Active Tracer */
(PID.TID 0000.0001)                   T
(PID.TID 0000.0001)     ;
(PID.TID 0000.0001) saltStepping =  /* Salinity equation on/off flag */
(PID.TID 0000.0001)                   F
(PID.TID 0000.0001)     ;
(PID.TID 0000.0001) saltAdvection = /* Salinity advection on/off flag */
(PID.TID 0000.0001)                   F
(PID.TID 0000.0001)     ;
(PID.TID 0000.0001) saltImplVertAdv = /* Sali. implicit vert. advection on/off */
(PID.TID 0000.0001)                   F
(PID.TID 0000.0001)     ;
(PID.TID 0000.0001) saltForcing  =  /* Salinity forcing on/off flag */
(PID.TID 0000.0001)                   F
(PID.TID 0000.0001)     ;
(PID.TID 0000.0001) doSaltClimRelax = /* apply SSS relaxation on/off flag */
(PID.TID 0000.0001)                   F
(PID.TID 0000.0001)     ;
(PID.TID 0000.0001) saltIsActiveTr = /* Salt  is a dynamically Active Tracer */
(PID.TID 0000.0001)                   F
(PID.TID 0000.0001)     ;
(PID.TID 0000.0001)  readBinaryPrec = /* Precision used for reading binary files */
(PID.TID 0000.0001)                      64
(PID.TID 0000.0001)     ;
(PID.TID 0000.0001) writeBinaryPrec = /* Precision used for writing binary files */
(PID.TID 0000.0001)                      64
(PID.TID 0000.0001)     ;
(PID.TID 0000.0001)  globalFiles = /* write "global" (=not per tile) files */
(PID.TID 0000.0001)                   F
(PID.TID 0000.0001)     ;
(PID.TID 0000.0001)  useSingleCpuIO = /* only master MPI process does I/O */
(PID.TID 0000.0001)                   T
(PID.TID 0000.0001)     ;
(PID.TID 0000.0001)  useSingleCpuInput = /* only master process reads input */
(PID.TID 0000.0001)                   T
(PID.TID 0000.0001)     ;
(PID.TID 0000.0001) /* debLev[*]  : level of debug & auxiliary message printing */
(PID.TID 0000.0001) debLevZero =  0 ; /* level of disabled aux. msg printing */
(PID.TID 0000.0001)    debLevA =  1 ; /* level of minimum  aux. msg printing */
(PID.TID 0000.0001)    debLevB =  2 ; /* level of low aux. print (report read-file opening)*/
(PID.TID 0000.0001)    debLevC =  3 ; /* level of moderate debug prt (most pkgs debug msg) */
(PID.TID 0000.0001)    debLevD =  4 ; /* level of enhanced debug prt (add DEBUG_STATS prt) */
(PID.TID 0000.0001)    debLevE =  5 ; /* level of extensive debug printing */
(PID.TID 0000.0001) debugLevel =  /* select debug printing level */
(PID.TID 0000.0001)                       2
(PID.TID 0000.0001)     ;
(PID.TID 0000.0001) //
(PID.TID 0000.0001) // Elliptic solver(s) paramters ( PARM02 in namelist )
(PID.TID 0000.0001) //
(PID.TID 0000.0001) cg2dMaxIters =   /* Upper limit on 2d con. grad iterations  */
(PID.TID 0000.0001)                    1000
(PID.TID 0000.0001)     ;
(PID.TID 0000.0001) cg2dChkResFreq =   /* 2d con. grad convergence test frequency */
(PID.TID 0000.0001)                       1
(PID.TID 0000.0001)     ;
(PID.TID 0000.0001) cg2dUseMinResSol= /* use cg2d last-iter(=0) / min-resid.(=1) solution */
(PID.TID 0000.0001)                       0
(PID.TID 0000.0001)     ;
(PID.TID 0000.0001) cg2dTargetResidual =   /* 2d con. grad target residual  */
(PID.TID 0000.0001)                 1.000000000000000E-13
(PID.TID 0000.0001)     ;
(PID.TID 0000.0001) cg2dTargetResWunit =   /* CG2d target residual [W units] */
(PID.TID 0000.0001)                -1.000000000000000E+00
(PID.TID 0000.0001)     ;
(PID.TID 0000.0001) cg2dPreCondFreq =   /* Freq. for updating cg2d preconditioner */
(PID.TID 0000.0001)                       1
(PID.TID 0000.0001)     ;
(PID.TID 0000.0001) useSRCGSolver =  /* use single reduction CG solver(s) */
(PID.TID 0000.0001)                   F
(PID.TID 0000.0001)     ;
(PID.TID 0000.0001) printResidualFreq = /* Freq. for printing CG residual */
(PID.TID 0000.0001)                       0
(PID.TID 0000.0001)     ;
(PID.TID 0000.0001) //
(PID.TID 0000.0001) // Time stepping paramters ( PARM03 in namelist )
(PID.TID 0000.0001) //
(PID.TID 0000.0001) deltaTMom =   /* Momentum equation timestep ( s ) */
(PID.TID 0000.0001)                 1.500000000000000E+01
(PID.TID 0000.0001)     ;
(PID.TID 0000.0001) deltaTFreeSurf = /* FreeSurface equation timestep ( s ) */
(PID.TID 0000.0001)                 1.500000000000000E+01
(PID.TID 0000.0001)     ;
(PID.TID 0000.0001) dTtracerLev =  /* Tracer equation timestep ( s ) */
(PID.TID 0000.0001)   100 @  1.500000000000000E+01              /* K =  1:100 */
(PID.TID 0000.0001)     ;
(PID.TID 0000.0001) deltaTClock  =   /* Model clock timestep ( s ) */
(PID.TID 0000.0001)                 1.500000000000000E+01
(PID.TID 0000.0001)     ;
(PID.TID 0000.0001) cAdjFreq =   /* Convective adjustment interval ( s ) */
(PID.TID 0000.0001)                 0.000000000000000E+00
(PID.TID 0000.0001)     ;
(PID.TID 0000.0001) momForcingOutAB = /* =1: take Momentum Forcing out of Adams-Bash. stepping */
(PID.TID 0000.0001)                       0
(PID.TID 0000.0001)     ;
(PID.TID 0000.0001) tracForcingOutAB = /* =1: take T,S,pTr Forcing out of Adams-Bash. stepping */
(PID.TID 0000.0001)                       0
(PID.TID 0000.0001)     ;
(PID.TID 0000.0001) momDissip_In_AB = /* put Dissipation Tendency in Adams-Bash. stepping */
(PID.TID 0000.0001)                   T
(PID.TID 0000.0001)     ;
(PID.TID 0000.0001) doAB_onGtGs = /* apply AB on Tendencies (rather than on T,S)*/
(PID.TID 0000.0001)                   T
(PID.TID 0000.0001)     ;
(PID.TID 0000.0001) abEps =   /* Adams-Bashforth-2 stabilizing weight */
(PID.TID 0000.0001)                 1.000000000000000E-01
(PID.TID 0000.0001)     ;
(PID.TID 0000.0001) pickupStrictlyMatch= /* stop if pickup do not strictly match */
(PID.TID 0000.0001)                   T
(PID.TID 0000.0001)     ;
(PID.TID 0000.0001) nIter0   =   /* Run starting timestep number */
(PID.TID 0000.0001)                       0
(PID.TID 0000.0001)     ;
(PID.TID 0000.0001) nTimeSteps = /* Number of timesteps */
(PID.TID 0000.0001)                    7200
(PID.TID 0000.0001)     ;
(PID.TID 0000.0001) nEndIter =   /* Run ending timestep number */
(PID.TID 0000.0001)                    7200
(PID.TID 0000.0001)     ;
(PID.TID 0000.0001) baseTime =   /* Model base time ( s ) */
(PID.TID 0000.0001)                 0.000000000000000E+00
(PID.TID 0000.0001)     ;
(PID.TID 0000.0001) startTime =  /* Run start time ( s ) */
(PID.TID 0000.0001)                 0.000000000000000E+00
(PID.TID 0000.0001)     ;
(PID.TID 0000.0001) endTime  =   /* Integration ending time ( s ) */
(PID.TID 0000.0001)                 1.080000000000000E+05
(PID.TID 0000.0001)     ;
(PID.TID 0000.0001) pChkPtFreq = /* Permanent restart/pickup file interval ( s ) */
(PID.TID 0000.0001)                 2.160000000000000E+04
(PID.TID 0000.0001)     ;
(PID.TID 0000.0001) chkPtFreq  = /* Rolling restart/pickup file interval ( s ) */
(PID.TID 0000.0001)                 0.000000000000000E+00
(PID.TID 0000.0001)     ;
(PID.TID 0000.0001) pickup_write_mdsio =   /* Model IO flag. */
(PID.TID 0000.0001)                   T
(PID.TID 0000.0001)     ;
(PID.TID 0000.0001) pickup_read_mdsio =   /* Model IO flag. */
(PID.TID 0000.0001)                   T
(PID.TID 0000.0001)     ;
(PID.TID 0000.0001) pickup_write_immed =   /* Model IO flag. */
(PID.TID 0000.0001)                   F
(PID.TID 0000.0001)     ;
(PID.TID 0000.0001) writePickupAtEnd =   /* Model IO flag. */
(PID.TID 0000.0001)                   T
(PID.TID 0000.0001)     ;
(PID.TID 0000.0001) dumpFreq =   /* Model state write out interval ( s ). */
(PID.TID 0000.0001)                 7.200000000000000E+03
(PID.TID 0000.0001)     ;
(PID.TID 0000.0001) dumpInitAndLast= /* write out Initial & Last iter. model state */
(PID.TID 0000.0001)                   T
(PID.TID 0000.0001)     ;
(PID.TID 0000.0001) snapshot_mdsio =   /* Model IO flag. */
(PID.TID 0000.0001)                   T
(PID.TID 0000.0001)     ;
(PID.TID 0000.0001) monitorFreq =   /* Monitor output interval ( s ). */
(PID.TID 0000.0001)                 7.200000000000000E+03
(PID.TID 0000.0001)     ;
(PID.TID 0000.0001) monitorSelect = /* select group of variables to monitor */
(PID.TID 0000.0001)                       3
(PID.TID 0000.0001)     ;
(PID.TID 0000.0001) monitor_stdio =   /* Model IO flag. */
(PID.TID 0000.0001)                   T
(PID.TID 0000.0001)     ;
(PID.TID 0000.0001) externForcingPeriod =   /* forcing period (s) */
(PID.TID 0000.0001)                 0.000000000000000E+00
(PID.TID 0000.0001)     ;
(PID.TID 0000.0001) externForcingCycle =   /* period of the cyle (s). */
(PID.TID 0000.0001)                 0.000000000000000E+00
(PID.TID 0000.0001)     ;
(PID.TID 0000.0001) tauThetaClimRelax =   /* relaxation time scale (s) */
(PID.TID 0000.0001)                 0.000000000000000E+00
(PID.TID 0000.0001)     ;
(PID.TID 0000.0001) tauSaltClimRelax =   /* relaxation time scale (s) */
(PID.TID 0000.0001)                 0.000000000000000E+00
(PID.TID 0000.0001)     ;
(PID.TID 0000.0001) latBandClimRelax =   /* max. Lat. where relaxation */
(PID.TID 0000.0001)                 1.500000000000000E+04
(PID.TID 0000.0001)     ;
(PID.TID 0000.0001) //
(PID.TID 0000.0001) // Gridding paramters ( PARM04 in namelist )
(PID.TID 0000.0001) //
(PID.TID 0000.0001) usingCartesianGrid = /* Cartesian coordinates flag ( True/False ) */
(PID.TID 0000.0001)                   T
(PID.TID 0000.0001)     ;
(PID.TID 0000.0001) usingCylindricalGrid = /* Cylindrical coordinates flag ( True/False ) */
(PID.TID 0000.0001)                   F
(PID.TID 0000.0001)     ;
(PID.TID 0000.0001) usingSphericalPolarGrid = /* Spherical coordinates flag ( True/False ) */
(PID.TID 0000.0001)                   F
(PID.TID 0000.0001)     ;
(PID.TID 0000.0001) usingCurvilinearGrid = /* Curvilinear coordinates flag ( True/False ) */
(PID.TID 0000.0001)                   F
(PID.TID 0000.0001)     ;
(PID.TID 0000.0001) selectSigmaCoord = /* Hybrid-Sigma Vert. Coordinate option */
(PID.TID 0000.0001)                       0
(PID.TID 0000.0001)     ;
(PID.TID 0000.0001) Ro_SeaLevel = /* r(1) ( units of r ==  m ) */
(PID.TID 0000.0001)                 0.000000000000000E+00
(PID.TID 0000.0001)     ;
(PID.TID 0000.0001) rSigmaBnd = /* r/sigma transition ( units of r ==  m ) */
(PID.TID 0000.0001)                 1.234567000000000E+05
(PID.TID 0000.0001)     ;
(PID.TID 0000.0001) rkSign =   /* index orientation relative to vertical coordinate */
(PID.TID 0000.0001)                -1.000000000000000E+00
(PID.TID 0000.0001)     ;
(PID.TID 0000.0001) gravitySign = /* gravity orientation relative to vertical coordinate */
(PID.TID 0000.0001)                -1.000000000000000E+00
(PID.TID 0000.0001)     ;
(PID.TID 0000.0001) mass2rUnit = /* convert mass per unit area [kg/m2] to r-units [m] */
(PID.TID 0000.0001)                 1.000200040008002E-03
(PID.TID 0000.0001)     ;
(PID.TID 0000.0001) rUnit2mass = /* convert r-units [m] to mass per unit area [kg/m2] */
(PID.TID 0000.0001)                 9.998000000000000E+02
(PID.TID 0000.0001)     ;
(PID.TID 0000.0001) drC =   /* C spacing ( units of r ) */
(PID.TID 0000.0001)                 2.188755257190683E+00,      /* K =  1 */
(PID.TID 0000.0001)                 4.330899997470791E+00,      /* K =  2 */
(PID.TID 0000.0001)                 4.238671555342814E+00,      /* K =  3 */
(PID.TID 0000.0001)                 4.148407158919499E+00,      /* K =  4 */
(PID.TID 0000.0001)                 4.060064982973822E+00,      /* K =  5 */
(PID.TID 0000.0001)                 3.973604092965578E+00,      /* K =  6 */
(PID.TID 0000.0001)                 3.888984426073804E+00,      /* K =  7 */
(PID.TID 0000.0001)                 3.806166772633129E+00,      /* K =  8 */
(PID.TID 0000.0001)                 3.725112757965456E+00,      /* K =  9 */
(PID.TID 0000.0001)                 3.645784824598524E+00,      /* K = 10 */
(PID.TID 0000.0001)                 3.568146214863156E+00,      /* K = 11 */
(PID.TID 0000.0001)                 3.492160953861090E+00,      /* K = 12 */
(PID.TID 0000.0001)                 3.417793832795526E+00,      /* K = 13 */
(PID.TID 0000.0001)                 3.345010392656658E+00,      /* K = 14 */
(PID.TID 0000.0001)                 3.273776908254621E+00,      /* K = 15 */
(PID.TID 0000.0001)                 3.204060372592473E+00,      /* K = 16 */
(PID.TID 0000.0001)                 3.135828481571955E+00,      /* K = 17 */
(PID.TID 0000.0001)                 3.069049619024951E+00,      /* K = 18 */
(PID.TID 0000.0001)                 3.003692842063711E+00,      /* K = 19 */
(PID.TID 0000.0001)                 2.939727866743045E+00,      /* K = 20 */
(PID.TID 0000.0001)                 2.877125054027847E+00,      /* K = 21 */
(PID.TID 0000.0001)                 2.815855396059452E+00,      /* K = 22 */
(PID.TID 0000.0001)                 2.755890502714447E+00,      /* K = 23 */
(PID.TID 0000.0001)                 2.697202588449727E+00,      /* K = 24 */
(PID.TID 0000.0001)                 2.639764459427690E+00,      /* K = 25 */
(PID.TID 0000.0001)                 2.583549500915603E+00,      /* K = 26 */
(PID.TID 0000.0001)                 2.528531664953307E+00,      /* K = 27 */
(PID.TID 0000.0001)                 2.474685458283540E+00,      /* K = 28 */
(PID.TID 0000.0001)                 2.421985930539298E+00,      /* K = 29 */
(PID.TID 0000.0001)                 2.370408662682740E+00,      /* K = 30 */
(PID.TID 0000.0001)                 2.319929755690298E+00,      /* K = 31 */
(PID.TID 0000.0001)                 2.270525819478747E+00,      /* K = 32 */
(PID.TID 0000.0001)                 2.222173962067086E+00,      /* K = 33 */
(PID.TID 0000.0001)                 2.174851778969233E+00,      /* K = 34 */
(PID.TID 0000.0001)                 2.128537342812607E+00,      /* K = 35 */
(PID.TID 0000.0001)                 2.083209193177780E+00,      /* K = 36 */
(PID.TID 0000.0001)                 2.038846326654500E+00,      /* K = 37 */
(PID.TID 0000.0001)                 1.995428187109485E+00,      /* K = 38 */
(PID.TID 0000.0001)                 1.952934656161452E+00,      /* K = 39 */
(PID.TID 0000.0001)                 1.911346043858999E+00,      /* K = 40 */
(PID.TID 0000.0001)                 1.870643079556999E+00,      /* K = 41 */
(PID.TID 0000.0001)                 1.830806902987284E+00,      /* K = 42 */
(PID.TID 0000.0001)                 1.791819055519489E+00,      /* K = 43 */
(PID.TID 0000.0001)                 1.753661471607994E+00,      /* K = 44 */
(PID.TID 0000.0001)                 1.716316470421009E+00,      /* K = 45 */
(PID.TID 0000.0001)                 1.679766747647922E+00,      /* K = 46 */
(PID.TID 0000.0001)                 1.643995367481116E+00,      /* K = 47 */
(PID.TID 0000.0001)                 1.608985754768530E+00,      /* K = 48 */
(PID.TID 0000.0001)                 1.574721687333338E+00,      /* K = 49 */
(PID.TID 0000.0001)                 1.541187288457190E+00,      /* K = 50 */
(PID.TID 0000.0001)                 1.508367019523514E+00,      /* K = 51 */
(PID.TID 0000.0001)                 1.476245672817492E+00,      /* K = 52 */
(PID.TID 0000.0001)                 1.444808364479355E+00,      /* K = 53 */
(PID.TID 0000.0001)                 1.414040527607753E+00,      /* K = 54 */
(PID.TID 0000.0001)                 1.383927905509979E+00,      /* K = 55 */
(PID.TID 0000.0001)                 1.354456545095941E+00,      /* K = 56 */
(PID.TID 0000.0001)                 1.325612790412805E+00,      /* K = 57 */
(PID.TID 0000.0001)                 1.297383276317331E+00,      /* K = 58 */
(PID.TID 0000.0001)                 1.269754922282946E+00,      /* K = 59 */
(PID.TID 0000.0001)                 1.242714926338713E+00,      /* K = 60 */
(PID.TID 0000.0001)                 1.216250759137361E+00,      /* K = 61 */
(PID.TID 0000.0001)                 1.190350158149641E+00,      /* K = 62 */
(PID.TID 0000.0001)                 1.165001121982321E+00,      /* K = 63 */
(PID.TID 0000.0001)                 1.140191904817177E+00,      /* K = 64 */
(PID.TID 0000.0001)                 1.115911010968409E+00,      /* K = 65 */
(PID.TID 0000.0001)                 1.092147189555960E+00,      /* K = 66 */
(PID.TID 0000.0001)                 1.068889429292269E+00,      /* K = 67 */
(PID.TID 0000.0001)                 1.046126953380043E+00,      /* K = 68 */
(PID.TID 0000.0001)                 1.017434101955024E+00,      /* K = 69 */
(PID.TID 0000.0001)     3 @  1.000000000000000E+00,             /* K = 70: 72 */
(PID.TID 0000.0001)                 9.998584140034217E-01,      /* K = 73 */
(PID.TID 0000.0001)                 1.010593151450680E+00,      /* K = 74 */
(PID.TID 0000.0001)                 1.032582454175967E+00,      /* K = 75 */
(PID.TID 0000.0001)                 1.055050217925506E+00,      /* K = 76 */
(PID.TID 0000.0001)                 1.078006853441037E+00,      /* K = 77 */
(PID.TID 0000.0001)                 1.101462997989634E+00,      /* K = 78 */
(PID.TID 0000.0001)                 1.125429520292630E+00,      /* K = 79 */
(PID.TID 0000.0001)                 1.149917525561778E+00,      /* K = 80 */
(PID.TID 0000.0001)                 1.174938360645011E+00,      /* K = 81 */
(PID.TID 0000.0001)                 1.200503619284147E+00,      /* K = 82 */
(PID.TID 0000.0001)                 1.226625147487014E+00,      /* K = 83 */
(PID.TID 0000.0001)                 1.253315049016451E+00,      /* K = 84 */
(PID.TID 0000.0001)                 1.280585690998757E+00,      /* K = 85 */
(PID.TID 0000.0001)                 1.308449709654159E+00,      /* K = 86 */
(PID.TID 0000.0001)                 1.336920016151980E+00,      /* K = 87 */
(PID.TID 0000.0001)                 1.366009802593203E+00,      /* K = 88 */
(PID.TID 0000.0001)                 1.395732548123206E+00,      /* K = 89 */
(PID.TID 0000.0001)                 1.426102025177510E+00,      /* K = 90 */
(PID.TID 0000.0001)                 1.457132305863421E+00,      /* K = 91 */
(PID.TID 0000.0001)                 1.488837768480531E+00,      /* K = 92 */
(PID.TID 0000.0001)                 1.521233104183099E+00,      /* K = 93 */
(PID.TID 0000.0001)                 1.554333323787391E+00,      /* K = 94 */
(PID.TID 0000.0001)                 1.588153764727151E+00,      /* K = 95 */
(PID.TID 0000.0001)                 1.622710098160403E+00,      /* K = 96 */
(PID.TID 0000.0001)                 1.658018336230896E+00,      /* K = 97 */
(PID.TID 0000.0001)                 1.694094839487546E+00,      /* K = 98 */
(PID.TID 0000.0001)                 1.730956324465319E+00,      /* K = 99 */
(PID.TID 0000.0001)                 1.768619871431060E+00,      /* K =100 */
(PID.TID 0000.0001)                 8.938271592110918E-01       /* K =101 */
(PID.TID 0000.0001)     ;
(PID.TID 0000.0001) drF =   /* W spacing ( units of r ) */
(PID.TID 0000.0001)                 4.377510514381365E+00,      /* K =  1 */
(PID.TID 0000.0001)                 4.284289480560218E+00,      /* K =  2 */
(PID.TID 0000.0001)                 4.193053630125411E+00,      /* K =  3 */
(PID.TID 0000.0001)                 4.103760687713587E+00,      /* K =  4 */
(PID.TID 0000.0001)                 4.016369278234058E+00,      /* K =  5 */
(PID.TID 0000.0001)                 3.930838907697099E+00,      /* K =  6 */
(PID.TID 0000.0001)                 3.847129944450508E+00,      /* K =  7 */
(PID.TID 0000.0001)                 3.765203600815751E+00,      /* K =  8 */
(PID.TID 0000.0001)                 3.685021915115161E+00,      /* K =  9 */
(PID.TID 0000.0001)                 3.606547734081888E+00,      /* K = 10 */
(PID.TID 0000.0001)                 3.529744695644425E+00,      /* K = 11 */
(PID.TID 0000.0001)                 3.454577212077754E+00,      /* K = 12 */
(PID.TID 0000.0001)                 3.381010453513297E+00,      /* K = 13 */
(PID.TID 0000.0001)                 3.309010331800018E+00,      /* K = 14 */
(PID.TID 0000.0001)                 3.238543484709224E+00,      /* K = 15 */
(PID.TID 0000.0001)                 3.169577260475722E+00,      /* K = 16 */
(PID.TID 0000.0001)                 3.102079702668187E+00,      /* K = 17 */
(PID.TID 0000.0001)                 3.036019535381715E+00,      /* K = 18 */
(PID.TID 0000.0001)                 2.971366148745707E+00,      /* K = 19 */
(PID.TID 0000.0001)                 2.908089584740382E+00,      /* K = 20 */
(PID.TID 0000.0001)                 2.846160523315313E+00,      /* K = 21 */
(PID.TID 0000.0001)                 2.785550268803592E+00,      /* K = 22 */
(PID.TID 0000.0001)                 2.726230736625302E+00,      /* K = 23 */
(PID.TID 0000.0001)                 2.668174440274151E+00,      /* K = 24 */
(PID.TID 0000.0001)                 2.611354478581228E+00,      /* K = 25 */
(PID.TID 0000.0001)                 2.555744523249978E+00,      /* K = 26 */
(PID.TID 0000.0001)                 2.501318806656635E+00,      /* K = 27 */
(PID.TID 0000.0001)                 2.448052109910445E+00,      /* K = 28 */
(PID.TID 0000.0001)                 2.395919751168151E+00,      /* K = 29 */
(PID.TID 0000.0001)                 2.344897574197328E+00,      /* K = 30 */
(PID.TID 0000.0001)                 2.294961937183269E+00,      /* K = 31 */
(PID.TID 0000.0001)                 2.246089701774226E+00,      /* K = 32 */
(PID.TID 0000.0001)                 2.198258222359946E+00,      /* K = 33 */
(PID.TID 0000.0001)                 2.151445335578521E+00,      /* K = 34 */
(PID.TID 0000.0001)                 2.105629350046694E+00,      /* K = 35 */
(PID.TID 0000.0001)                 2.060789036308865E+00,      /* K = 36 */
(PID.TID 0000.0001)                 2.016903617000136E+00,      /* K = 37 */
(PID.TID 0000.0001)                 1.973952757218834E+00,      /* K = 38 */
(PID.TID 0000.0001)                 1.931916555104069E+00,      /* K = 39 */
(PID.TID 0000.0001)                 1.890775532613929E+00,      /* K = 40 */
(PID.TID 0000.0001)                 1.850510626500068E+00,      /* K = 41 */
(PID.TID 0000.0001)                 1.811103179474499E+00,      /* K = 42 */
(PID.TID 0000.0001)                 1.772534931564479E+00,      /* K = 43 */
(PID.TID 0000.0001)                 1.734788011651509E+00,      /* K = 44 */
(PID.TID 0000.0001)                 1.697844929190508E+00,      /* K = 45 */
(PID.TID 0000.0001)                 1.661688566105336E+00,      /* K = 46 */
(PID.TID 0000.0001)                 1.626302168856896E+00,      /* K = 47 */
(PID.TID 0000.0001)                 1.591669340680163E+00,      /* K = 48 */
(PID.TID 0000.0001)                 1.557774033986514E+00,      /* K = 49 */
(PID.TID 0000.0001)                 1.524600542927867E+00,      /* K = 50 */
(PID.TID 0000.0001)                 1.492133496119162E+00,      /* K = 51 */
(PID.TID 0000.0001)                 1.460357849515821E+00,      /* K = 52 */
(PID.TID 0000.0001)                 1.429258879442888E+00,      /* K = 53 */
(PID.TID 0000.0001)                 1.398822175772617E+00,      /* K = 54 */
(PID.TID 0000.0001)                 1.369033635247342E+00,      /* K = 55 */
(PID.TID 0000.0001)                 1.339879454944541E+00,      /* K = 56 */
(PID.TID 0000.0001)                 1.311346125881070E+00,      /* K = 57 */
(PID.TID 0000.0001)                 1.283420426753591E+00,      /* K = 58 */
(PID.TID 0000.0001)                 1.256089417812301E+00,      /* K = 59 */
(PID.TID 0000.0001)                 1.229340434865126E+00,      /* K = 60 */
(PID.TID 0000.0001)                 1.203161083409596E+00,      /* K = 61 */
(PID.TID 0000.0001)                 1.177539232889686E+00,      /* K = 62 */
(PID.TID 0000.0001)                 1.152463011074957E+00,      /* K = 63 */
(PID.TID 0000.0001)                 1.127920798559398E+00,      /* K = 64 */
(PID.TID 0000.0001)                 1.103901223377420E+00,      /* K = 65 */
(PID.TID 0000.0001)                 1.080393155734499E+00,      /* K = 66 */
(PID.TID 0000.0001)                 1.057385702850038E+00,      /* K = 67 */
(PID.TID 0000.0001)                 1.034868203910047E+00,      /* K = 68 */
(PID.TID 0000.0001)     4 @  1.000000000000000E+00,             /* K = 69: 72 */
(PID.TID 0000.0001)                 9.997168280068435E-01,      /* K = 73 */
(PID.TID 0000.0001)                 1.021469474894516E+00,      /* K = 74 */
(PID.TID 0000.0001)                 1.043695433457419E+00,      /* K = 75 */
(PID.TID 0000.0001)                 1.066405002393594E+00,      /* K = 76 */
(PID.TID 0000.0001)                 1.089608704488480E+00,      /* K = 77 */
(PID.TID 0000.0001)                 1.113317291490789E+00,      /* K = 78 */
(PID.TID 0000.0001)                 1.137541749094471E+00,      /* K = 79 */
(PID.TID 0000.0001)                 1.162293302029086E+00,      /* K = 80 */
(PID.TID 0000.0001)                 1.187583419260936E+00,      /* K = 81 */
(PID.TID 0000.0001)                 1.213423819307359E+00,      /* K = 82 */
(PID.TID 0000.0001)                 1.239826475666668E+00,      /* K = 83 */
(PID.TID 0000.0001)                 1.266803622366234E+00,      /* K = 84 */
(PID.TID 0000.0001)                 1.294367759631280E+00,      /* K = 85 */
(PID.TID 0000.0001)                 1.322531659677038E+00,      /* K = 86 */
(PID.TID 0000.0001)                 1.351308372626922E+00,      /* K = 87 */
(PID.TID 0000.0001)                 1.380711232559483E+00,      /* K = 88 */
(PID.TID 0000.0001)                 1.410753863686929E+00,      /* K = 89 */
(PID.TID 0000.0001)                 1.441450186668091E+00,      /* K = 90 */
(PID.TID 0000.0001)                 1.472814425058751E+00,      /* K = 91 */
(PID.TID 0000.0001)                 1.504861111902312E+00,      /* K = 92 */
(PID.TID 0000.0001)                 1.537605096463885E+00,      /* K = 93 */
(PID.TID 0000.0001)                 1.571061551110896E+00,      /* K = 94 */
(PID.TID 0000.0001)                 1.605245978343405E+00,      /* K = 95 */
(PID.TID 0000.0001)                 1.640174217977400E+00,      /* K = 96 */
(PID.TID 0000.0001)                 1.675862454484391E+00,      /* K = 97 */
(PID.TID 0000.0001)                 1.712327224490701E+00,      /* K = 98 */
(PID.TID 0000.0001)                 1.749585424439936E+00,      /* K = 99 */
(PID.TID 0000.0001)                 1.787654318422184E+00       /* K =100 */
(PID.TID 0000.0001)     ;
(PID.TID 0000.0001) delX = /* U spacing ( m - cartesian, degrees - spherical ) */
(PID.TID 0000.0001)                 1.263294638016668E+03,      /* I =  1 */
(PID.TID 0000.0001)                 1.237496063806571E+03,      /* I =  2 */
(PID.TID 0000.0001)                 1.212224339320398E+03,      /* I =  3 */
(PID.TID 0000.0001)      . . .
(PID.TID 0000.0001)                 4.790113490274632E+02,      /* I = 48 */
(PID.TID 0000.0001)                 4.692291418815790E+02,      /* I = 49 */
(PID.TID 0000.0001)                 4.596467036489769E+02,      /* I = 50 */
(PID.TID 0000.0001)                 4.502599547167311E+02,      /* I = 51 */
(PID.TID 0000.0001)                 4.410648987843862E+02,      /* I = 52 */
(PID.TID 0000.0001)                 4.320576211625778E+02,      /* I = 53 */
(PID.TID 0000.0001)      . . .
(PID.TID 0000.0001)                 2.000000000000000E+02,      /* I = 98 */
(PID.TID 0000.0001)                 2.000000000000000E+02,      /* I = 99 */
(PID.TID 0000.0001)                 2.000000000000000E+02,      /* I =100 */
(PID.TID 0000.0001)                 2.000000000000000E+02,      /* I =101 */
(PID.TID 0000.0001)                 2.000000000000000E+02,      /* I =102 */
(PID.TID 0000.0001)                 2.000000000000000E+02,      /* I =103 */
(PID.TID 0000.0001)      . . .
(PID.TID 0000.0001)                 3.612641354876311E+02,      /* I =148 */
(PID.TID 0000.0001)                 3.687955530665730E+02,      /* I =149 */
(PID.TID 0000.0001)                 3.764839811128614E+02,      /* I =150 */
(PID.TID 0000.0001)                 3.843326928863569E+02,      /* I =151 */
(PID.TID 0000.0001)                 3.923450298858749E+02,      /* I =152 */
(PID.TID 0000.0001)                 4.005244032717896E+02,      /* I =153 */
(PID.TID 0000.0001)      . . .
(PID.TID 0000.0001)                 1.013599012055986E+03,      /* I =198 */
(PID.TID 0000.0001)                 1.034729915092050E+03,      /* I =199 */
(PID.TID 0000.0001)                 1.056301342495056E+03       /* I =200 */
(PID.TID 0000.0001)     ;
(PID.TID 0000.0001) delY = /* V spacing ( m - cartesian, degrees - spherical ) */
(PID.TID 0000.0001)                 5.000000000000000E+03       /* J =  1 */
(PID.TID 0000.0001)     ;
(PID.TID 0000.0001) xgOrigin = /* X-axis origin of West  edge (cartesian: m, lat-lon: deg) */
(PID.TID 0000.0001)                 0.000000000000000E+00
(PID.TID 0000.0001)     ;
(PID.TID 0000.0001) ygOrigin = /* Y-axis origin of South edge (cartesian: m, lat-lon: deg) */
(PID.TID 0000.0001)                 0.000000000000000E+00
(PID.TID 0000.0001)     ;
(PID.TID 0000.0001) rSphere =  /* Radius ( ignored - cartesian, m - spherical ) */
(PID.TID 0000.0001)                 6.370000000000000E+06
(PID.TID 0000.0001)     ;
(PID.TID 0000.0001) deepAtmosphere = /* Deep/Shallow Atmosphere flag (True/False) */
(PID.TID 0000.0001)                   F
(PID.TID 0000.0001)     ;
(PID.TID 0000.0001) xC =  /* xC(:,1,:,1) : P-point X coord ( deg. or m if cartesian) */
(PID.TID 0000.0001)                 6.316473190083342E+02,      /* I =  1 */
(PID.TID 0000.0001)                 1.882042669919954E+03,      /* I =  2 */
(PID.TID 0000.0001)                 3.106902871483439E+03,      /* I =  3 */
(PID.TID 0000.0001)      . . .
(PID.TID 0000.0001)                 3.864398747251778E+04,      /* I = 48 */
(PID.TID 0000.0001)                 3.911810771797229E+04,      /* I = 49 */
(PID.TID 0000.0001)                 3.958254564073758E+04,      /* I = 50 */
(PID.TID 0000.0001)                 4.003749896992043E+04,      /* I = 51 */
(PID.TID 0000.0001)                 4.048316139667099E+04,      /* I = 52 */
(PID.TID 0000.0001)                 4.091972265664447E+04,      /* I = 53 */
(PID.TID 0000.0001)      . . .
(PID.TID 0000.0001)                 5.369999999999999E+04,      /* I = 98 */
(PID.TID 0000.0001)                 5.389999999999999E+04,      /* I = 99 */
(PID.TID 0000.0001)                 5.409999999999999E+04,      /* I =100 */
(PID.TID 0000.0001)                 5.429999999999999E+04,      /* I =101 */
(PID.TID 0000.0001)                 5.449999999999999E+04,      /* I =102 */
(PID.TID 0000.0001)                 5.469999999999999E+04,      /* I =103 */
(PID.TID 0000.0001)      . . .
(PID.TID 0000.0001)                 6.578505387737689E+04,      /* I =148 */
(PID.TID 0000.0001)                 6.615008372165399E+04,      /* I =149 */
(PID.TID 0000.0001)                 6.652272348874371E+04,      /* I =150 */
(PID.TID 0000.0001)                 6.690313182574332E+04,      /* I =151 */
(PID.TID 0000.0001)                 6.729147068712943E+04,      /* I =152 */
(PID.TID 0000.0001)                 6.768790540370827E+04,      /* I =153 */
(PID.TID 0000.0001)      . . .
(PID.TID 0000.0001)                 9.740216923638493E+04,      /* I =198 */
(PID.TID 0000.0001)                 9.842633369995895E+04,      /* I =199 */
(PID.TID 0000.0001)                 9.947184932875249E+04       /* I =200 */
(PID.TID 0000.0001)     ;
(PID.TID 0000.0001) yC =  /* yC(1,:,1,:) : P-point Y coord ( deg. or m if cartesian) */
(PID.TID 0000.0001)                 2.500000000000000E+03       /* J =  1 */
(PID.TID 0000.0001)     ;
(PID.TID 0000.0001) rcoord = /* P-point R coordinate (  units of r ) */
(PID.TID 0000.0001)                -2.188755257190683E+00,      /* K =  1 */
(PID.TID 0000.0001)                -6.519655254661473E+00,      /* K =  2 */
(PID.TID 0000.0001)                -1.075832681000429E+01,      /* K =  3 */
(PID.TID 0000.0001)                -1.490673396892379E+01,      /* K =  4 */
(PID.TID 0000.0001)                -1.896679895189761E+01,      /* K =  5 */
(PID.TID 0000.0001)                -2.294040304486319E+01,      /* K =  6 */
(PID.TID 0000.0001)                -2.682938747093699E+01,      /* K =  7 */
(PID.TID 0000.0001)                -3.063555424357012E+01,      /* K =  8 */
(PID.TID 0000.0001)                -3.436066700153558E+01,      /* K =  9 */
(PID.TID 0000.0001)                -3.800645182613410E+01,      /* K = 10 */
(PID.TID 0000.0001)                -4.157459804099726E+01,      /* K = 11 */
(PID.TID 0000.0001)                -4.506675899485835E+01,      /* K = 12 */
(PID.TID 0000.0001)                -4.848455282765387E+01,      /* K = 13 */
(PID.TID 0000.0001)                -5.182956322031053E+01,      /* K = 14 */
(PID.TID 0000.0001)                -5.510334012856515E+01,      /* K = 15 */
(PID.TID 0000.0001)                -5.830740050115762E+01,      /* K = 16 */
(PID.TID 0000.0001)                -6.144322898272958E+01,      /* K = 17 */
(PID.TID 0000.0001)                -6.451227860175453E+01,      /* K = 18 */
(PID.TID 0000.0001)                -6.751597144381824E+01,      /* K = 19 */
(PID.TID 0000.0001)                -7.045569931056129E+01,      /* K = 20 */
(PID.TID 0000.0001)                -7.333282436458913E+01,      /* K = 21 */
(PID.TID 0000.0001)                -7.614867976064858E+01,      /* K = 22 */
(PID.TID 0000.0001)                -7.890457026336303E+01,      /* K = 23 */
(PID.TID 0000.0001)                -8.160177285181275E+01,      /* K = 24 */
(PID.TID 0000.0001)                -8.424153731124045E+01,      /* K = 25 */
(PID.TID 0000.0001)                -8.682508681215606E+01,      /* K = 26 */
(PID.TID 0000.0001)                -8.935361847710936E+01,      /* K = 27 */
(PID.TID 0000.0001)                -9.182830393539291E+01,      /* K = 28 */
(PID.TID 0000.0001)                -9.425028986593220E+01,      /* K = 29 */
(PID.TID 0000.0001)                -9.662069852861494E+01,      /* K = 30 */
(PID.TID 0000.0001)                -9.894062828430523E+01,      /* K = 31 */
(PID.TID 0000.0001)                -1.012111541037840E+02,      /* K = 32 */
(PID.TID 0000.0001)                -1.034333280658511E+02,      /* K = 33 */
(PID.TID 0000.0001)                -1.056081798448203E+02,      /* K = 34 */
(PID.TID 0000.0001)                -1.077367171876329E+02,      /* K = 35 */
(PID.TID 0000.0001)                -1.098199263808107E+02,      /* K = 36 */
(PID.TID 0000.0001)                -1.118587727074652E+02,      /* K = 37 */
(PID.TID 0000.0001)                -1.138542008945747E+02,      /* K = 38 */
(PID.TID 0000.0001)                -1.158071355507361E+02,      /* K = 39 */
(PID.TID 0000.0001)                -1.177184815945951E+02,      /* K = 40 */
(PID.TID 0000.0001)                -1.195891246741521E+02,      /* K = 41 */
(PID.TID 0000.0001)                -1.214199315771394E+02,      /* K = 42 */
(PID.TID 0000.0001)                -1.232117506326589E+02,      /* K = 43 */
(PID.TID 0000.0001)                -1.249654121042669E+02,      /* K = 44 */
(PID.TID 0000.0001)                -1.266817285746879E+02,      /* K = 45 */
(PID.TID 0000.0001)                -1.283614953223358E+02,      /* K = 46 */
(PID.TID 0000.0001)                -1.300054906898169E+02,      /* K = 47 */
(PID.TID 0000.0001)                -1.316144764445854E+02,      /* K = 48 */
(PID.TID 0000.0001)                -1.331891981319188E+02,      /* K = 49 */
(PID.TID 0000.0001)                -1.347303854203760E+02,      /* K = 50 */
(PID.TID 0000.0001)                -1.362387524398995E+02,      /* K = 51 */
(PID.TID 0000.0001)                -1.377149981127170E+02,      /* K = 52 */
(PID.TID 0000.0001)                -1.391598064771964E+02,      /* K = 53 */
(PID.TID 0000.0001)                -1.405738470048041E+02,      /* K = 54 */
(PID.TID 0000.0001)                -1.419577749103141E+02,      /* K = 55 */
(PID.TID 0000.0001)                -1.433122314554100E+02,      /* K = 56 */
(PID.TID 0000.0001)                -1.446378442458228E+02,      /* K = 57 */
(PID.TID 0000.0001)                -1.459352275221402E+02,      /* K = 58 */
(PID.TID 0000.0001)                -1.472049824444231E+02,      /* K = 59 */
(PID.TID 0000.0001)                -1.484476973707618E+02,      /* K = 60 */
(PID.TID 0000.0001)                -1.496639481298992E+02,      /* K = 61 */
(PID.TID 0000.0001)                -1.508542982880488E+02,      /* K = 62 */
(PID.TID 0000.0001)                -1.520192994100312E+02,      /* K = 63 */
(PID.TID 0000.0001)                -1.531594913148483E+02,      /* K = 64 */
(PID.TID 0000.0001)                -1.542754023258167E+02,      /* K = 65 */
(PID.TID 0000.0001)                -1.553675495153727E+02,      /* K = 66 */
(PID.TID 0000.0001)                -1.564364389446650E+02,      /* K = 67 */
(PID.TID 0000.0001)                -1.574825658980450E+02,      /* K = 68 */
(PID.TID 0000.0001)                -1.585000000000000E+02,      /* K = 69 */
(PID.TID 0000.0001)                -1.595000000000000E+02,      /* K = 70 */
(PID.TID 0000.0001)                -1.605000000000000E+02,      /* K = 71 */
(PID.TID 0000.0001)                -1.615000000000000E+02,      /* K = 72 */
(PID.TID 0000.0001)                -1.624998584140035E+02,      /* K = 73 */
(PID.TID 0000.0001)                -1.635104515654541E+02,      /* K = 74 */
(PID.TID 0000.0001)                -1.645430340196301E+02,      /* K = 75 */
(PID.TID 0000.0001)                -1.655980842375556E+02,      /* K = 76 */
(PID.TID 0000.0001)                -1.666760910909966E+02,      /* K = 77 */
(PID.TID 0000.0001)                -1.677775540889863E+02,      /* K = 78 */
(PID.TID 0000.0001)                -1.689029836092789E+02,      /* K = 79 */
(PID.TID 0000.0001)                -1.700529011348407E+02,      /* K = 80 */
(PID.TID 0000.0001)                -1.712278394954857E+02,      /* K = 81 */
(PID.TID 0000.0001)                -1.724283431147699E+02,      /* K = 82 */
(PID.TID 0000.0001)                -1.736549682622569E+02,      /* K = 83 */
(PID.TID 0000.0001)                -1.749082833112734E+02,      /* K = 84 */
(PID.TID 0000.0001)                -1.761888690022721E+02,      /* K = 85 */
(PID.TID 0000.0001)                -1.774973187119263E+02,      /* K = 86 */
(PID.TID 0000.0001)                -1.788342387280782E+02,      /* K = 87 */
(PID.TID 0000.0001)                -1.802002485306714E+02,      /* K = 88 */
(PID.TID 0000.0001)                -1.815959810787946E+02,      /* K = 89 */
(PID.TID 0000.0001)                -1.830220831039721E+02,      /* K = 90 */
(PID.TID 0000.0001)                -1.844792154098355E+02,      /* K = 91 */
(PID.TID 0000.0001)                -1.859680531783161E+02,      /* K = 92 */
(PID.TID 0000.0001)                -1.874892862824992E+02,      /* K = 93 */
(PID.TID 0000.0001)                -1.890436196062866E+02,      /* K = 94 */
(PID.TID 0000.0001)                -1.906317733710137E+02,      /* K = 95 */
(PID.TID 0000.0001)                -1.922544834691741E+02,      /* K = 96 */
(PID.TID 0000.0001)                -1.939125018054050E+02,      /* K = 97 */
(PID.TID 0000.0001)                -1.956065966448926E+02,      /* K = 98 */
(PID.TID 0000.0001)                -1.973375529693579E+02,      /* K = 99 */
(PID.TID 0000.0001)                -1.991061728407890E+02       /* K =100 */
(PID.TID 0000.0001)     ;
(PID.TID 0000.0001) rF =   /* W-Interf. R coordinate (  units of r ) */
(PID.TID 0000.0001)                 0.000000000000000E+00,      /* K =  1 */
(PID.TID 0000.0001)                -4.377510514381365E+00,      /* K =  2 */
(PID.TID 0000.0001)                -8.661799994941582E+00,      /* K =  3 */
(PID.TID 0000.0001)                -1.285485362506699E+01,      /* K =  4 */
(PID.TID 0000.0001)                -1.695861431278058E+01,      /* K =  5 */
(PID.TID 0000.0001)                -2.097498359101464E+01,      /* K =  6 */
(PID.TID 0000.0001)                -2.490582249871174E+01,      /* K =  7 */
(PID.TID 0000.0001)                -2.875295244316225E+01,      /* K =  8 */
(PID.TID 0000.0001)                -3.251815604397800E+01,      /* K =  9 */
(PID.TID 0000.0001)                -3.620317795909315E+01,      /* K = 10 */
(PID.TID 0000.0001)                -3.980972569317504E+01,      /* K = 11 */
(PID.TID 0000.0001)                -4.333947038881946E+01,      /* K = 12 */
(PID.TID 0000.0001)                -4.679404760089722E+01,      /* K = 13 */
(PID.TID 0000.0001)                -5.017505805441051E+01,      /* K = 14 */
(PID.TID 0000.0001)                -5.348406838621053E+01,      /* K = 15 */
(PID.TID 0000.0001)                -5.672261187091976E+01,      /* K = 16 */
(PID.TID 0000.0001)                -5.989218913139548E+01,      /* K = 17 */
(PID.TID 0000.0001)                -6.299426883406366E+01,      /* K = 18 */
(PID.TID 0000.0001)                -6.603028836944537E+01,      /* K = 19 */
(PID.TID 0000.0001)                -6.900165451819107E+01,      /* K = 20 */
(PID.TID 0000.0001)                -7.190974410293146E+01,      /* K = 21 */
(PID.TID 0000.0001)                -7.475590462624677E+01,      /* K = 22 */
(PID.TID 0000.0001)                -7.754145489505036E+01,      /* K = 23 */
(PID.TID 0000.0001)                -8.026768563167566E+01,      /* K = 24 */
(PID.TID 0000.0001)                -8.293586007194982E+01,      /* K = 25 */
(PID.TID 0000.0001)                -8.554721455053105E+01,      /* K = 26 */
(PID.TID 0000.0001)                -8.810295907378104E+01,      /* K = 27 */
(PID.TID 0000.0001)                -9.060427788043768E+01,      /* K = 28 */
(PID.TID 0000.0001)                -9.305232999034813E+01,      /* K = 29 */
(PID.TID 0000.0001)                -9.544824974151628E+01,      /* K = 30 */
(PID.TID 0000.0001)                -9.779314731571361E+01,      /* K = 31 */
(PID.TID 0000.0001)                -1.000881092528969E+02,      /* K = 32 */
(PID.TID 0000.0001)                -1.023341989546711E+02,      /* K = 33 */
(PID.TID 0000.0001)                -1.045324571770310E+02,      /* K = 34 */
(PID.TID 0000.0001)                -1.066839025126096E+02,      /* K = 35 */
(PID.TID 0000.0001)                -1.087895318626563E+02,      /* K = 36 */
(PID.TID 0000.0001)                -1.108503208989651E+02,      /* K = 37 */
(PID.TID 0000.0001)                -1.128672245159653E+02,      /* K = 38 */
(PID.TID 0000.0001)                -1.148411772731841E+02,      /* K = 39 */
(PID.TID 0000.0001)                -1.167730938282882E+02,      /* K = 40 */
(PID.TID 0000.0001)                -1.186638693609021E+02,      /* K = 41 */
(PID.TID 0000.0001)                -1.205143799874022E+02,      /* K = 42 */
(PID.TID 0000.0001)                -1.223254831668767E+02,      /* K = 43 */
(PID.TID 0000.0001)                -1.240980180984411E+02,      /* K = 44 */
(PID.TID 0000.0001)                -1.258328061100926E+02,      /* K = 45 */
(PID.TID 0000.0001)                -1.275306510392832E+02,      /* K = 46 */
(PID.TID 0000.0001)                -1.291923396053885E+02,      /* K = 47 */
(PID.TID 0000.0001)                -1.308186417742454E+02,      /* K = 48 */
(PID.TID 0000.0001)                -1.324103111149256E+02,      /* K = 49 */
(PID.TID 0000.0001)                -1.339680851489121E+02,      /* K = 50 */
(PID.TID 0000.0001)                -1.354926856918399E+02,      /* K = 51 */
(PID.TID 0000.0001)                -1.369848191879591E+02,      /* K = 52 */
(PID.TID 0000.0001)                -1.384451770374749E+02,      /* K = 53 */
(PID.TID 0000.0001)                -1.398744359169178E+02,      /* K = 54 */
(PID.TID 0000.0001)                -1.412732580926904E+02,      /* K = 55 */
(PID.TID 0000.0001)                -1.426422917279378E+02,      /* K = 56 */
(PID.TID 0000.0001)                -1.439821711828823E+02,      /* K = 57 */
(PID.TID 0000.0001)                -1.452935173087634E+02,      /* K = 58 */
(PID.TID 0000.0001)                -1.465769377355170E+02,      /* K = 59 */
(PID.TID 0000.0001)                -1.478330271533293E+02,      /* K = 60 */
(PID.TID 0000.0001)                -1.490623675881944E+02,      /* K = 61 */
(PID.TID 0000.0001)                -1.502655286716040E+02,      /* K = 62 */
(PID.TID 0000.0001)                -1.514430679044937E+02,      /* K = 63 */
(PID.TID 0000.0001)                -1.525955309155686E+02,      /* K = 64 */
(PID.TID 0000.0001)                -1.537234517141280E+02,      /* K = 65 */
(PID.TID 0000.0001)                -1.548273529375054E+02,      /* K = 66 */
(PID.TID 0000.0001)                -1.559077460932399E+02,      /* K = 67 */
(PID.TID 0000.0001)                -1.569651317960900E+02,      /* K = 68 */
(PID.TID 0000.0001)                -1.580000000000000E+02,      /* K = 69 */
(PID.TID 0000.0001)                -1.590000000000000E+02,      /* K = 70 */
(PID.TID 0000.0001)                -1.600000000000000E+02,      /* K = 71 */
(PID.TID 0000.0001)                -1.610000000000000E+02,      /* K = 72 */
(PID.TID 0000.0001)                -1.620000000000000E+02,      /* K = 73 */
(PID.TID 0000.0001)                -1.629997168280069E+02,      /* K = 74 */
(PID.TID 0000.0001)                -1.640211863029014E+02,      /* K = 75 */
(PID.TID 0000.0001)                -1.650648817363588E+02,      /* K = 76 */
(PID.TID 0000.0001)                -1.661312867387524E+02,      /* K = 77 */
(PID.TID 0000.0001)                -1.672208954432409E+02,      /* K = 78 */
(PID.TID 0000.0001)                -1.683342127347317E+02,      /* K = 79 */
(PID.TID 0000.0001)                -1.694717544838261E+02,      /* K = 80 */
(PID.TID 0000.0001)                -1.706340477858552E+02,      /* K = 81 */
(PID.TID 0000.0001)                -1.718216312051162E+02,      /* K = 82 */
(PID.TID 0000.0001)                -1.730350550244235E+02,      /* K = 83 */
(PID.TID 0000.0001)                -1.742748815000902E+02,      /* K = 84 */
(PID.TID 0000.0001)                -1.755416851224564E+02,      /* K = 85 */
(PID.TID 0000.0001)                -1.768360528820877E+02,      /* K = 86 */
(PID.TID 0000.0001)                -1.781585845417648E+02,      /* K = 87 */
(PID.TID 0000.0001)                -1.795098929143917E+02,      /* K = 88 */
(PID.TID 0000.0001)                -1.808906041469512E+02,      /* K = 89 */
(PID.TID 0000.0001)                -1.823013580106381E+02,      /* K = 90 */
(PID.TID 0000.0001)                -1.837428081973062E+02,      /* K = 91 */
(PID.TID 0000.0001)                -1.852156226223649E+02,      /* K = 92 */
(PID.TID 0000.0001)                -1.867204837342672E+02,      /* K = 93 */
(PID.TID 0000.0001)                -1.882580888307311E+02,      /* K = 94 */
(PID.TID 0000.0001)                -1.898291503818420E+02,      /* K = 95 */
(PID.TID 0000.0001)                -1.914343963601854E+02,      /* K = 96 */
(PID.TID 0000.0001)                -1.930745705781628E+02,      /* K = 97 */
(PID.TID 0000.0001)                -1.947504330326472E+02,      /* K = 98 */
(PID.TID 0000.0001)                -1.964627602571379E+02,      /* K = 99 */
(PID.TID 0000.0001)                -1.982123456815779E+02,      /* K =100 */
(PID.TID 0000.0001)                -2.000000000000000E+02       /* K =101 */
(PID.TID 0000.0001)     ;
(PID.TID 0000.0001) deepFacC = /* deep-model grid factor @ cell-Center (-) */
(PID.TID 0000.0001)   100 @  1.000000000000000E+00              /* K =  1:100 */
(PID.TID 0000.0001)     ;
(PID.TID 0000.0001) deepFacF = /* deep-model grid factor @ W-Interface (-) */
(PID.TID 0000.0001)   101 @  1.000000000000000E+00              /* K =  1:101 */
(PID.TID 0000.0001)     ;
(PID.TID 0000.0001) rVel2wUnit = /* convert units: rVel -> wSpeed (=1 if z-coord)*/
(PID.TID 0000.0001)   101 @  1.000000000000000E+00              /* K =  1:101 */
(PID.TID 0000.0001)     ;
(PID.TID 0000.0001) wUnit2rVel = /* convert units: wSpeed -> rVel (=1 if z-coord)*/
(PID.TID 0000.0001)   101 @  1.000000000000000E+00              /* K =  1:101 */
(PID.TID 0000.0001)     ;
(PID.TID 0000.0001) dBdrRef = /* Vertical grad. of reference buoyancy [(m/s/r)^2] */
(PID.TID 0000.0001)     6 @  0.000000000000000E+00,             /* K =  1:  6 */
(PID.TID 0000.0001)                 3.375890164712781E-07,      /* K =  7 */
(PID.TID 0000.0001)                 1.142266355880870E-05,      /* K =  8 */
(PID.TID 0000.0001)                 1.421844100865257E-04,      /* K =  9 */
(PID.TID 0000.0001)                 6.510916019715049E-04,      /* K = 10 */
(PID.TID 0000.0001)                 1.096825970326279E-03,      /* K = 11 */
(PID.TID 0000.0001)                 6.797338133188683E-04,      /* K = 12 */
(PID.TID 0000.0001)                 1.549692538253217E-04,      /* K = 13 */
(PID.TID 0000.0001)                 1.299743719420112E-05,      /* K = 14 */
(PID.TID 0000.0001)                 4.010286785761222E-07,      /* K = 15 */
(PID.TID 0000.0001)    85 @  0.000000000000000E+00              /* K = 16:100 */
(PID.TID 0000.0001)     ;
(PID.TID 0000.0001) rotateGrid = /* use rotated grid ( True/False ) */
(PID.TID 0000.0001)                   F
(PID.TID 0000.0001)     ;
(PID.TID 0000.0001) phiEuler = /* Euler angle, rotation about original z-coordinate [rad] */
(PID.TID 0000.0001)                 0.000000000000000E+00
(PID.TID 0000.0001)     ;
(PID.TID 0000.0001) thetaEuler = /* Euler angle, rotation about new x-coordinate [rad] */
(PID.TID 0000.0001)                 0.000000000000000E+00
(PID.TID 0000.0001)     ;
(PID.TID 0000.0001) psiEuler = /* Euler angle, rotation about new z-coordinate [rad] */
(PID.TID 0000.0001)                 0.000000000000000E+00
(PID.TID 0000.0001)     ;
(PID.TID 0000.0001) dxF =  /* dxF(:,1,:,1) ( units: m ) */
(PID.TID 0000.0001)                 1.263294638016668E+03,      /* I =  1 */
(PID.TID 0000.0001)                 1.237496063806571E+03,      /* I =  2 */
(PID.TID 0000.0001)                 1.212224339320398E+03,      /* I =  3 */
(PID.TID 0000.0001)      . . .
(PID.TID 0000.0001)                 4.790113490274632E+02,      /* I = 48 */
(PID.TID 0000.0001)                 4.692291418815790E+02,      /* I = 49 */
(PID.TID 0000.0001)                 4.596467036489769E+02,      /* I = 50 */
(PID.TID 0000.0001)                 4.502599547167311E+02,      /* I = 51 */
(PID.TID 0000.0001)                 4.410648987843862E+02,      /* I = 52 */
(PID.TID 0000.0001)                 4.320576211625778E+02,      /* I = 53 */
(PID.TID 0000.0001)      . . .
(PID.TID 0000.0001)                 2.000000000000000E+02,      /* I = 98 */
(PID.TID 0000.0001)                 2.000000000000000E+02,      /* I = 99 */
(PID.TID 0000.0001)                 2.000000000000000E+02,      /* I =100 */
(PID.TID 0000.0001)                 2.000000000000000E+02,      /* I =101 */
(PID.TID 0000.0001)                 2.000000000000000E+02,      /* I =102 */
(PID.TID 0000.0001)                 2.000000000000000E+02,      /* I =103 */
(PID.TID 0000.0001)      . . .
(PID.TID 0000.0001)                 3.612641354876311E+02,      /* I =148 */
(PID.TID 0000.0001)                 3.687955530665730E+02,      /* I =149 */
(PID.TID 0000.0001)                 3.764839811128614E+02,      /* I =150 */
(PID.TID 0000.0001)                 3.843326928863569E+02,      /* I =151 */
(PID.TID 0000.0001)                 3.923450298858749E+02,      /* I =152 */
(PID.TID 0000.0001)                 4.005244032717896E+02,      /* I =153 */
(PID.TID 0000.0001)      . . .
(PID.TID 0000.0001)                 1.013599012055986E+03,      /* I =198 */
(PID.TID 0000.0001)                 1.034729915092050E+03,      /* I =199 */
(PID.TID 0000.0001)                 1.056301342495056E+03       /* I =200 */
(PID.TID 0000.0001)     ;
(PID.TID 0000.0001) dxF =  /* dxF(1,:,1,:) ( units: m ) */
(PID.TID 0000.0001)                 1.263294638016668E+03       /* J =  1 */
(PID.TID 0000.0001)     ;
(PID.TID 0000.0001) dyF =  /* dyF(:,1,:,1) ( units: m ) */
(PID.TID 0000.0001)   200 @  5.000000000000000E+03              /* I =  1:200 */
(PID.TID 0000.0001)     ;
(PID.TID 0000.0001) dyF =  /* dyF(1,:,1,:) ( units: m ) */
(PID.TID 0000.0001)                 5.000000000000000E+03       /* J =  1 */
(PID.TID 0000.0001)     ;
(PID.TID 0000.0001) dxG =  /* dxG(:,1,:,1) ( units: m ) */
(PID.TID 0000.0001)                 1.263294638016668E+03,      /* I =  1 */
(PID.TID 0000.0001)                 1.237496063806571E+03,      /* I =  2 */
(PID.TID 0000.0001)                 1.212224339320398E+03,      /* I =  3 */
(PID.TID 0000.0001)      . . .
(PID.TID 0000.0001)                 4.790113490274632E+02,      /* I = 48 */
(PID.TID 0000.0001)                 4.692291418815790E+02,      /* I = 49 */
(PID.TID 0000.0001)                 4.596467036489769E+02,      /* I = 50 */
(PID.TID 0000.0001)                 4.502599547167311E+02,      /* I = 51 */
(PID.TID 0000.0001)                 4.410648987843862E+02,      /* I = 52 */
(PID.TID 0000.0001)                 4.320576211625778E+02,      /* I = 53 */
(PID.TID 0000.0001)      . . .
(PID.TID 0000.0001)                 2.000000000000000E+02,      /* I = 98 */
(PID.TID 0000.0001)                 2.000000000000000E+02,      /* I = 99 */
(PID.TID 0000.0001)                 2.000000000000000E+02,      /* I =100 */
(PID.TID 0000.0001)                 2.000000000000000E+02,      /* I =101 */
(PID.TID 0000.0001)                 2.000000000000000E+02,      /* I =102 */
(PID.TID 0000.0001)                 2.000000000000000E+02,      /* I =103 */
(PID.TID 0000.0001)      . . .
(PID.TID 0000.0001)                 3.612641354876311E+02,      /* I =148 */
(PID.TID 0000.0001)                 3.687955530665730E+02,      /* I =149 */
(PID.TID 0000.0001)                 3.764839811128614E+02,      /* I =150 */
(PID.TID 0000.0001)                 3.843326928863569E+02,      /* I =151 */
(PID.TID 0000.0001)                 3.923450298858749E+02,      /* I =152 */
(PID.TID 0000.0001)                 4.005244032717896E+02,      /* I =153 */
(PID.TID 0000.0001)      . . .
(PID.TID 0000.0001)                 1.013599012055986E+03,      /* I =198 */
(PID.TID 0000.0001)                 1.034729915092050E+03,      /* I =199 */
(PID.TID 0000.0001)                 1.056301342495056E+03       /* I =200 */
(PID.TID 0000.0001)     ;
(PID.TID 0000.0001) dxG =  /* dxG(1,:,1,:) ( units: m ) */
(PID.TID 0000.0001)                 1.263294638016668E+03       /* J =  1 */
(PID.TID 0000.0001)     ;
(PID.TID 0000.0001) dyG =  /* dyG(:,1,:,1) ( units: m ) */
(PID.TID 0000.0001)   200 @  5.000000000000000E+03              /* I =  1:200 */
(PID.TID 0000.0001)     ;
(PID.TID 0000.0001) dyG =  /* dyG(1,:,1,:) ( units: m ) */
(PID.TID 0000.0001)                 5.000000000000000E+03       /* J =  1 */
(PID.TID 0000.0001)     ;
(PID.TID 0000.0001) dxC =  /* dxC(:,1,:,1) ( units: m ) */
(PID.TID 0000.0001)                 1.159797990255862E+03,      /* I =  1 */
(PID.TID 0000.0001)                 1.250395350911620E+03,      /* I =  2 */
(PID.TID 0000.0001)                 1.224860201563485E+03,      /* I =  3 */
(PID.TID 0000.0001)      . . .
(PID.TID 0000.0001)                 4.840044193881684E+02,      /* I = 48 */
(PID.TID 0000.0001)                 4.741202454545211E+02,      /* I = 49 */
(PID.TID 0000.0001)                 4.644379227652780E+02,      /* I = 50 */
(PID.TID 0000.0001)                 4.549533291828540E+02,      /* I = 51 */
(PID.TID 0000.0001)                 4.456624267505587E+02,      /* I = 52 */
(PID.TID 0000.0001)                 4.365612599734820E+02,      /* I = 53 */
(PID.TID 0000.0001)      . . .
(PID.TID 0000.0001)                 2.000000000000000E+02,      /* I = 98 */
(PID.TID 0000.0001)                 2.000000000000000E+02,      /* I = 99 */
(PID.TID 0000.0001)                 2.000000000000000E+02,      /* I =100 */
(PID.TID 0000.0001)                 2.000000000000000E+02,      /* I =101 */
(PID.TID 0000.0001)                 2.000000000000000E+02,      /* I =102 */
(PID.TID 0000.0001)                 2.000000000000000E+02,      /* I =103 */
(PID.TID 0000.0001)      . . .
(PID.TID 0000.0001)                 3.575753287246037E+02,      /* I =148 */
(PID.TID 0000.0001)                 3.650298442771020E+02,      /* I =149 */
(PID.TID 0000.0001)                 3.726397670897172E+02,      /* I =150 */
(PID.TID 0000.0001)                 3.804083369996092E+02,      /* I =151 */
(PID.TID 0000.0001)                 3.883388613861159E+02,      /* I =152 */
(PID.TID 0000.0001)                 3.964347165788323E+02,      /* I =153 */
(PID.TID 0000.0001)      . . .
(PID.TID 0000.0001)                 1.003249324601893E+03,      /* I =198 */
(PID.TID 0000.0001)                 1.024164463574018E+03,      /* I =199 */
(PID.TID 0000.0001)                 1.045515628793553E+03       /* I =200 */
(PID.TID 0000.0001)     ;
(PID.TID 0000.0001) dxC =  /* dxC(1,:,1,:) ( units: m ) */
(PID.TID 0000.0001)                 1.159797990255862E+03       /* J =  1 */
(PID.TID 0000.0001)     ;
(PID.TID 0000.0001) dyC =  /* dyC(:,1,:,1) ( units: m ) */
(PID.TID 0000.0001)   200 @  5.000000000000000E+03              /* I =  1:200 */
(PID.TID 0000.0001)     ;
(PID.TID 0000.0001) dyC =  /* dyC(1,:,1,:) ( units: m ) */
(PID.TID 0000.0001)                 5.000000000000000E+03       /* J =  1 */
(PID.TID 0000.0001)     ;
(PID.TID 0000.0001) dxV =  /* dxV(:,1,:,1) ( units: m ) */
(PID.TID 0000.0001)                 1.159797990255862E+03,      /* I =  1 */
(PID.TID 0000.0001)                 1.250395350911620E+03,      /* I =  2 */
(PID.TID 0000.0001)                 1.224860201563485E+03,      /* I =  3 */
(PID.TID 0000.0001)      . . .
(PID.TID 0000.0001)                 4.840044193881684E+02,      /* I = 48 */
(PID.TID 0000.0001)                 4.741202454545211E+02,      /* I = 49 */
(PID.TID 0000.0001)                 4.644379227652780E+02,      /* I = 50 */
(PID.TID 0000.0001)                 4.549533291828540E+02,      /* I = 51 */
(PID.TID 0000.0001)                 4.456624267505587E+02,      /* I = 52 */
(PID.TID 0000.0001)                 4.365612599734820E+02,      /* I = 53 */
(PID.TID 0000.0001)      . . .
(PID.TID 0000.0001)                 2.000000000000000E+02,      /* I = 98 */
(PID.TID 0000.0001)                 2.000000000000000E+02,      /* I = 99 */
(PID.TID 0000.0001)                 2.000000000000000E+02,      /* I =100 */
(PID.TID 0000.0001)                 2.000000000000000E+02,      /* I =101 */
(PID.TID 0000.0001)                 2.000000000000000E+02,      /* I =102 */
(PID.TID 0000.0001)                 2.000000000000000E+02,      /* I =103 */
(PID.TID 0000.0001)      . . .
(PID.TID 0000.0001)                 3.575753287246037E+02,      /* I =148 */
(PID.TID 0000.0001)                 3.650298442771020E+02,      /* I =149 */
(PID.TID 0000.0001)                 3.726397670897172E+02,      /* I =150 */
(PID.TID 0000.0001)                 3.804083369996092E+02,      /* I =151 */
(PID.TID 0000.0001)                 3.883388613861159E+02,      /* I =152 */
(PID.TID 0000.0001)                 3.964347165788323E+02,      /* I =153 */
(PID.TID 0000.0001)      . . .
(PID.TID 0000.0001)                 1.003249324601893E+03,      /* I =198 */
(PID.TID 0000.0001)                 1.024164463574018E+03,      /* I =199 */
(PID.TID 0000.0001)                 1.045515628793553E+03       /* I =200 */
(PID.TID 0000.0001)     ;
(PID.TID 0000.0001) dxV =  /* dxV(1,:,1,:) ( units: m ) */
(PID.TID 0000.0001)                 1.159797990255862E+03       /* J =  1 */
(PID.TID 0000.0001)     ;
(PID.TID 0000.0001) dyU =  /* dyU(:,1,:,1) ( units: m ) */
(PID.TID 0000.0001)   200 @  5.000000000000000E+03              /* I =  1:200 */
(PID.TID 0000.0001)     ;
(PID.TID 0000.0001) dyU =  /* dyU(1,:,1,:) ( units: m ) */
(PID.TID 0000.0001)                 5.000000000000000E+03       /* J =  1 */
(PID.TID 0000.0001)     ;
(PID.TID 0000.0001) rA  =  /* rA (:,1,:,1) ( units: m^2 ) */
(PID.TID 0000.0001)                 6.316473190083342E+06,      /* I =  1 */
(PID.TID 0000.0001)                 6.187480319032855E+06,      /* I =  2 */
(PID.TID 0000.0001)                 6.061121696601991E+06,      /* I =  3 */
(PID.TID 0000.0001)      . . .
(PID.TID 0000.0001)                 2.395056745137316E+06,      /* I = 48 */
(PID.TID 0000.0001)                 2.346145709407895E+06,      /* I = 49 */
(PID.TID 0000.0001)                 2.298233518244884E+06,      /* I = 50 */
(PID.TID 0000.0001)                 2.251299773583656E+06,      /* I = 51 */
(PID.TID 0000.0001)                 2.205324493921931E+06,      /* I = 52 */
(PID.TID 0000.0001)                 2.160288105812889E+06,      /* I = 53 */
(PID.TID 0000.0001)      . . .
(PID.TID 0000.0001)                 1.000000000000000E+06,      /* I = 98 */
(PID.TID 0000.0001)                 1.000000000000000E+06,      /* I = 99 */
(PID.TID 0000.0001)                 1.000000000000000E+06,      /* I =100 */
(PID.TID 0000.0001)                 1.000000000000000E+06,      /* I =101 */
(PID.TID 0000.0001)                 1.000000000000000E+06,      /* I =102 */
(PID.TID 0000.0001)                 1.000000000000000E+06,      /* I =103 */
(PID.TID 0000.0001)      . . .
(PID.TID 0000.0001)                 1.806320677438155E+06,      /* I =148 */
(PID.TID 0000.0001)                 1.843977765332865E+06,      /* I =149 */
(PID.TID 0000.0001)                 1.882419905564307E+06,      /* I =150 */
(PID.TID 0000.0001)                 1.921663464431785E+06,      /* I =151 */
(PID.TID 0000.0001)                 1.961725149429375E+06,      /* I =152 */
(PID.TID 0000.0001)                 2.002622016358948E+06,      /* I =153 */
(PID.TID 0000.0001)      . . .
(PID.TID 0000.0001)                 5.067995060279928E+06,      /* I =198 */
(PID.TID 0000.0001)                 5.173649575460250E+06,      /* I =199 */
(PID.TID 0000.0001)                 5.281506712475282E+06       /* I =200 */
(PID.TID 0000.0001)     ;
(PID.TID 0000.0001) rA  =  /* rA (1,:,1,:) ( units: m^2 ) */
(PID.TID 0000.0001)                 6.316473190083342E+06       /* J =  1 */
(PID.TID 0000.0001)     ;
(PID.TID 0000.0001) rAw =  /* rAw(:,1,:,1) ( units: m^2 ) */
(PID.TID 0000.0001)                 5.798989951279311E+06,      /* I =  1 */
(PID.TID 0000.0001)                 6.251976754558099E+06,      /* I =  2 */
(PID.TID 0000.0001)                 6.124301007817423E+06,      /* I =  3 */
(PID.TID 0000.0001)      . . .
(PID.TID 0000.0001)                 2.420022096940842E+06,      /* I = 48 */
(PID.TID 0000.0001)                 2.370601227272606E+06,      /* I = 49 */
(PID.TID 0000.0001)                 2.322189613826390E+06,      /* I = 50 */
(PID.TID 0000.0001)                 2.274766645914270E+06,      /* I = 51 */
(PID.TID 0000.0001)                 2.228312133752794E+06,      /* I = 52 */
(PID.TID 0000.0001)                 2.182806299867410E+06,      /* I = 53 */
(PID.TID 0000.0001)      . . .
(PID.TID 0000.0001)                 1.000000000000000E+06,      /* I = 98 */
(PID.TID 0000.0001)                 1.000000000000000E+06,      /* I = 99 */
(PID.TID 0000.0001)                 1.000000000000000E+06,      /* I =100 */
(PID.TID 0000.0001)                 1.000000000000000E+06,      /* I =101 */
(PID.TID 0000.0001)                 1.000000000000000E+06,      /* I =102 */
(PID.TID 0000.0001)                 1.000000000000000E+06,      /* I =103 */
(PID.TID 0000.0001)      . . .
(PID.TID 0000.0001)                 1.787876643623018E+06,      /* I =148 */
(PID.TID 0000.0001)                 1.825149221385510E+06,      /* I =149 */
(PID.TID 0000.0001)                 1.863198835448586E+06,      /* I =150 */
(PID.TID 0000.0001)                 1.902041684998046E+06,      /* I =151 */
(PID.TID 0000.0001)                 1.941694306930580E+06,      /* I =152 */
(PID.TID 0000.0001)                 1.982173582894161E+06,      /* I =153 */
(PID.TID 0000.0001)      . . .
(PID.TID 0000.0001)                 5.016246623009465E+06,      /* I =198 */
(PID.TID 0000.0001)                 5.120822317870088E+06,      /* I =199 */
(PID.TID 0000.0001)                 5.227578143967765E+06       /* I =200 */
(PID.TID 0000.0001)     ;
(PID.TID 0000.0001) rAw =  /* rAw(1,:,1,:) ( units: m^2 ) */
(PID.TID 0000.0001)                 5.798989951279311E+06       /* J =  1 */
(PID.TID 0000.0001)     ;
(PID.TID 0000.0001) rAs =  /* rAs(:,1,:,1) ( units: m^2 ) */
(PID.TID 0000.0001)                 6.316473190083342E+06,      /* I =  1 */
(PID.TID 0000.0001)                 6.187480319032855E+06,      /* I =  2 */
(PID.TID 0000.0001)                 6.061121696601991E+06,      /* I =  3 */
(PID.TID 0000.0001)      . . .
(PID.TID 0000.0001)                 2.395056745137316E+06,      /* I = 48 */
(PID.TID 0000.0001)                 2.346145709407895E+06,      /* I = 49 */
(PID.TID 0000.0001)                 2.298233518244884E+06,      /* I = 50 */
(PID.TID 0000.0001)                 2.251299773583656E+06,      /* I = 51 */
(PID.TID 0000.0001)                 2.205324493921931E+06,      /* I = 52 */
(PID.TID 0000.0001)                 2.160288105812889E+06,      /* I = 53 */
(PID.TID 0000.0001)      . . .
(PID.TID 0000.0001)                 1.000000000000000E+06,      /* I = 98 */
(PID.TID 0000.0001)                 1.000000000000000E+06,      /* I = 99 */
(PID.TID 0000.0001)                 1.000000000000000E+06,      /* I =100 */
(PID.TID 0000.0001)                 1.000000000000000E+06,      /* I =101 */
(PID.TID 0000.0001)                 1.000000000000000E+06,      /* I =102 */
(PID.TID 0000.0001)                 1.000000000000000E+06,      /* I =103 */
(PID.TID 0000.0001)      . . .
(PID.TID 0000.0001)                 1.806320677438155E+06,      /* I =148 */
(PID.TID 0000.0001)                 1.843977765332865E+06,      /* I =149 */
(PID.TID 0000.0001)                 1.882419905564307E+06,      /* I =150 */
(PID.TID 0000.0001)                 1.921663464431785E+06,      /* I =151 */
(PID.TID 0000.0001)                 1.961725149429375E+06,      /* I =152 */
(PID.TID 0000.0001)                 2.002622016358948E+06,      /* I =153 */
(PID.TID 0000.0001)      . . .
(PID.TID 0000.0001)                 5.067995060279928E+06,      /* I =198 */
(PID.TID 0000.0001)                 5.173649575460250E+06,      /* I =199 */
(PID.TID 0000.0001)                 5.281506712475282E+06       /* I =200 */
(PID.TID 0000.0001)     ;
(PID.TID 0000.0001) rAs =  /* rAs(1,:,1,:) ( units: m^2 ) */
(PID.TID 0000.0001)                 6.316473190083342E+06       /* J =  1 */
(PID.TID 0000.0001)     ;
(PID.TID 0000.0001) globalArea = /* Integrated horizontal Area (m^2) */
(PID.TID 0000.0001)                 4.884020200974414E+08
(PID.TID 0000.0001)     ;
(PID.TID 0000.0001) // =======================================================
(PID.TID 0000.0001) // End of Model config. summary
(PID.TID 0000.0001) // =======================================================
(PID.TID 0000.0001) 
(PID.TID 0000.0001) == Packages configuration : Check & print summary ==
(PID.TID 0000.0001) 
(PID.TID 0000.0001) OBCS_CHECK: #define ALLOW_OBCS
(PID.TID 0000.0001) OBCS_CHECK: start summary:
(PID.TID 0000.0001) useOBCSprescribe = /* prescribe OB values */
(PID.TID 0000.0001)                   T
(PID.TID 0000.0001)     ;
(PID.TID 0000.0001) useOBCSbalance = /* balance the flow through OB */
(PID.TID 0000.0001)                   F
(PID.TID 0000.0001)     ;
(PID.TID 0000.0001) OBCS_uvApplyFac = /* Factor to apply to U,V 2nd column/row */
(PID.TID 0000.0001)                 1.000000000000000E+00
(PID.TID 0000.0001)     ;
(PID.TID 0000.0001) OBCS_u1_adv_T = /* Temp uses upwind adv-scheme @ OB */
(PID.TID 0000.0001)                       0
(PID.TID 0000.0001)     ;
(PID.TID 0000.0001) OBCS_u1_adv_S = /* Salt uses upwind adv-scheme @ OB */
(PID.TID 0000.0001)                       0
(PID.TID 0000.0001)     ;
(PID.TID 0000.0001) OBCS_monitorFreq = /* monitor output frequency [s] */
(PID.TID 0000.0001)                 7.200000000000000E+03
(PID.TID 0000.0001)     ;
(PID.TID 0000.0001) OBCS_monSelect = /* select group of variables to monitor */
(PID.TID 0000.0001)                       0
(PID.TID 0000.0001)     ;
(PID.TID 0000.0001) useOBCStides = /* apply tidal forcing through OB */
(PID.TID 0000.0001)                   F
(PID.TID 0000.0001)     ;
(PID.TID 0000.0001) tidalPeriod = /* (s) */
(PID.TID 0000.0001)    10 @  0.000000000000000E+00              /* I =  1: 10 */
(PID.TID 0000.0001)     ;
(PID.TID 0000.0001) OB_indexNone = /* null value for OB index (i.e. no OB) */
(PID.TID 0000.0001)                     -99
(PID.TID 0000.0001)     ;
(PID.TID 0000.0001) ======== Tile bi=   1 , bj=   1 ========
(PID.TID 0000.0001)  OB_Jn = /* Northern OB local indices */
(PID.TID 0000.0001)   204 @      -99                            /* I = -1:202 */
(PID.TID 0000.0001)  OB_Js = /* Southern OB local indices */
(PID.TID 0000.0001)   204 @      -99                            /* I = -1:202 */
(PID.TID 0000.0001)  OB_Ie = /* Eastern OB local indices */
(PID.TID 0000.0001)     5 @      200                            /* J = -1:  3 */
(PID.TID 0000.0001)  OB_Iw = /* Western OB local indices */
(PID.TID 0000.0001)     5 @        1                            /* J = -1:  3 */
(PID.TID 0000.0001) OBCS_CHECK: end summary.
(PID.TID 0000.0001) OBCS_CHECK: set-up OK
(PID.TID 0000.0001) OBCS_CHECK: check Inside Mask and OB locations: OK
(PID.TID 0000.0001) KL10_CHECK: #define ALLOW_KL10
(PID.TID 0000.0001) GAD_CHECK: #define ALLOW_GENERIC_ADVDIFF
(PID.TID 0000.0001) // =======================================================
(PID.TID 0000.0001) // Check Model config. (CONFIG_CHECK):
(PID.TID 0000.0001) // CONFIG_CHECK : Normal End
(PID.TID 0000.0001) // =======================================================
(PID.TID 0000.0001) 
(PID.TID 0000.0001)  MDS_READ_FIELD: opening global file: U0.bin
(PID.TID 0000.0001)  MDS_READ_FIELD: opening global file: T0.bin
(PID.TID 0000.0001) Start initial hydrostatic pressure computation
(PID.TID 0000.0001) Pressure is predetermined for buoyancyRelation OCEANIC
(PID.TID 0000.0001) 
(PID.TID 0000.0001)  OBCS_FIELDS_LOAD: Reading initial data:         0  0.000000000000E+00
(PID.TID 0000.0001)  MDS_READ_SEC_YZ: opening global file: U_in.bin
(PID.TID 0000.0001)  MDS_READ_SEC_YZ: opening global file: TE.bin
(PID.TID 0000.0001)  MDS_READ_SEC_YZ: opening global file: U_in.bin
(PID.TID 0000.0001)  MDS_READ_SEC_YZ: opening global file: TW.bin
(PID.TID 0000.0001) // =======================================================
(PID.TID 0000.0001) // Model current state
(PID.TID 0000.0001) // =======================================================
(PID.TID 0000.0001) 
(PID.TID 0000.0001) // =======================================================
(PID.TID 0000.0001) // Begin MONITOR dynamic field statistics
(PID.TID 0000.0001) // =======================================================
(PID.TID 0000.0001) %MON time_tsnumber                =                     0
(PID.TID 0000.0001) %MON time_secondsf                =   0.0000000000000E+00
(PID.TID 0000.0001) %MON dynstat_eta_max              =   0.0000000000000E+00
(PID.TID 0000.0001) %MON dynstat_eta_min              =   0.0000000000000E+00
(PID.TID 0000.0001) %MON dynstat_eta_mean             =   0.0000000000000E+00
(PID.TID 0000.0001) %MON dynstat_eta_sd               =   0.0000000000000E+00
(PID.TID 0000.0001) %MON dynstat_eta_del2             =   0.0000000000000E+00
(PID.TID 0000.0001) %MON dynstat_uvel_max             =   4.4822851314926E-01
(PID.TID 0000.0001) %MON dynstat_uvel_min             =   4.4822851314926E-01
(PID.TID 0000.0001) %MON dynstat_uvel_mean            =   4.4822851314927E-01
(PID.TID 0000.0001) %MON dynstat_uvel_sd              =   6.4392935428259E-15
(PID.TID 0000.0001) %MON dynstat_uvel_del2            =   0.0000000000000E+00
(PID.TID 0000.0001) %MON dynstat_vvel_max             =   0.0000000000000E+00
(PID.TID 0000.0001) %MON dynstat_vvel_min             =   0.0000000000000E+00
(PID.TID 0000.0001) %MON dynstat_vvel_mean            =   0.0000000000000E+00
(PID.TID 0000.0001) %MON dynstat_vvel_sd              =   0.0000000000000E+00
(PID.TID 0000.0001) %MON dynstat_vvel_del2            =   0.0000000000000E+00
(PID.TID 0000.0001) %MON dynstat_wvel_max             =   5.4719078503133E-03
(PID.TID 0000.0001) %MON dynstat_wvel_min             =  -5.4719078503133E-03
(PID.TID 0000.0001) %MON dynstat_wvel_mean            =   5.0717333633414E-21
(PID.TID 0000.0001) %MON dynstat_wvel_sd              =   1.1292692883501E-03
(PID.TID 0000.0001) %MON dynstat_wvel_del2            =   1.2508435837934E-06
(PID.TID 0000.0001) %MON dynstat_theta_max            =   1.5000000000000E+01
(PID.TID 0000.0001) %MON dynstat_theta_min            =   1.0000000000000E+01
(PID.TID 0000.0001) %MON dynstat_theta_mean           =   1.1004811744065E+01
(PID.TID 0000.0001) %MON dynstat_theta_sd             =   1.9418977513440E+00
(PID.TID 0000.0001) %MON dynstat_theta_del2           =   0.0000000000000E+00
(PID.TID 0000.0001) %MON dynstat_salt_max             =   3.5000000000000E+01
(PID.TID 0000.0001) %MON dynstat_salt_min             =   3.5000000000000E+01
(PID.TID 0000.0001) %MON dynstat_salt_mean            =   3.5000000000000E+01
(PID.TID 0000.0001) %MON dynstat_salt_sd              =   4.0500935938326E-13
(PID.TID 0000.0001) %MON dynstat_salt_del2            =   0.0000000000000E+00
(PID.TID 0000.0001) %MON dynstat_sst_max              =   1.5000000000000E+01
(PID.TID 0000.0001) %MON dynstat_sst_min              =   1.5000000000000E+01
(PID.TID 0000.0001) %MON dynstat_sst_mean             =   1.5000000000000E+01
(PID.TID 0000.0001) %MON dynstat_sst_sd               =   5.3290705182008E-15
(PID.TID 0000.0001) %MON dynstat_sst_del2             =   0.0000000000000E+00
(PID.TID 0000.0001) %MON dynstat_sss_max              =   3.5000000000000E+01
(PID.TID 0000.0001) %MON dynstat_sss_min              =   3.5000000000000E+01
(PID.TID 0000.0001) %MON dynstat_sss_mean             =   3.5000000000000E+01
(PID.TID 0000.0001) %MON dynstat_sss_sd               =   4.2632564145606E-14
(PID.TID 0000.0001) %MON dynstat_sss_del2             =   0.0000000000000E+00
(PID.TID 0000.0001) %MON forcing_qnet_max             =   0.0000000000000E+00
(PID.TID 0000.0001) %MON forcing_qnet_min             =   0.0000000000000E+00
(PID.TID 0000.0001) %MON forcing_qnet_mean            =   0.0000000000000E+00
(PID.TID 0000.0001) %MON forcing_qnet_sd              =   0.0000000000000E+00
(PID.TID 0000.0001) %MON forcing_qnet_del2            =   0.0000000000000E+00
(PID.TID 0000.0001) %MON forcing_qsw_max              =   0.0000000000000E+00
(PID.TID 0000.0001) %MON forcing_qsw_min              =   0.0000000000000E+00
(PID.TID 0000.0001) %MON forcing_qsw_mean             =   0.0000000000000E+00
(PID.TID 0000.0001) %MON forcing_qsw_sd               =   0.0000000000000E+00
(PID.TID 0000.0001) %MON forcing_qsw_del2             =   0.0000000000000E+00
(PID.TID 0000.0001) %MON forcing_empmr_max            =   0.0000000000000E+00
(PID.TID 0000.0001) %MON forcing_empmr_min            =   0.0000000000000E+00
(PID.TID 0000.0001) %MON forcing_empmr_mean           =   0.0000000000000E+00
(PID.TID 0000.0001) %MON forcing_empmr_sd             =   0.0000000000000E+00
(PID.TID 0000.0001) %MON forcing_empmr_del2           =   0.0000000000000E+00
(PID.TID 0000.0001) %MON forcing_fu_max               =   0.0000000000000E+00
(PID.TID 0000.0001) %MON forcing_fu_min               =   0.0000000000000E+00
(PID.TID 0000.0001) %MON forcing_fu_mean              =   0.0000000000000E+00
(PID.TID 0000.0001) %MON forcing_fu_sd                =   0.0000000000000E+00
(PID.TID 0000.0001) %MON forcing_fu_del2              =   0.0000000000000E+00
(PID.TID 0000.0001) %MON forcing_fv_max               =   0.0000000000000E+00
(PID.TID 0000.0001) %MON forcing_fv_min               =   0.0000000000000E+00
(PID.TID 0000.0001) %MON forcing_fv_mean              =   0.0000000000000E+00
(PID.TID 0000.0001) %MON forcing_fv_sd                =   0.0000000000000E+00
(PID.TID 0000.0001) %MON forcing_fv_del2              =   0.0000000000000E+00
(PID.TID 0000.0001) %MON advcfl_uvel_max              =   3.3617138486195E-02
(PID.TID 0000.0001) %MON advcfl_vvel_max              =   0.0000000000000E+00
(PID.TID 0000.0001) %MON advcfl_wvel_max              =   8.2090240583222E-02
(PID.TID 0000.0001) %MON advcfl_W_hf_max              =   8.2101866703936E-02
(PID.TID 0000.0001) %MON pe_b_mean                    =   0.0000000000000E+00
(PID.TID 0000.0001) %MON ke_max                       =   1.0115334879466E-01
(PID.TID 0000.0001) %MON ke_mean                      =   1.0042274264219E-01
(PID.TID 0000.0001) %MON ke_vol                       =   9.6656886657870E+10
(PID.TID 0000.0001) %MON vort_r_min                   =   0.0000000000000E+00
(PID.TID 0000.0001) %MON vort_r_max                   =   0.0000000000000E+00
(PID.TID 0000.0001) %MON vort_a_mean                  =   0.0000000000000E+00
(PID.TID 0000.0001) %MON vort_a_sd                    =   0.0000000000000E+00
(PID.TID 0000.0001) %MON vort_p_mean                  =   0.0000000000000E+00
(PID.TID 0000.0001) %MON vort_p_sd                    =   0.0000000000000E+00
(PID.TID 0000.0001) %MON surfExpan_theta_mean         =   3.5746458633021E-19
(PID.TID 0000.0001) %MON surfExpan_salt_mean          =   1.2856392400920E-19
(PID.TID 0000.0001) // =======================================================
(PID.TID 0000.0001) // End MONITOR dynamic field statistics
(PID.TID 0000.0001) // =======================================================
(PID.TID 0000.0001) // =======================================================
(PID.TID 0000.0001) // Begin OBCS MONITOR field statistics
(PID.TID 0000.0001) // =======================================================
(PID.TID 0000.0001) %MON obc_E_uVel_max               =   4.4822851314926E-01
(PID.TID 0000.0001) %MON obc_E_uVel_min               =   4.4822851314926E-01
(PID.TID 0000.0001) %MON obc_E_uVel_mean              =   4.4822851314926E-01
(PID.TID 0000.0001) %MON obc_E_uVel_sd                =  -1.9428902930940E-16
(PID.TID 0000.0001) %MON obc_E_uVel_Int               =   4.4822851314926E+05
(PID.TID 0000.0001) %MON obc_W_uVel_max               =   4.4822851314926E-01
(PID.TID 0000.0001) %MON obc_W_uVel_min               =   4.4822851314926E-01
(PID.TID 0000.0001) %MON obc_W_uVel_mean              =   4.4822851314926E-01
(PID.TID 0000.0001) %MON obc_W_uVel_sd                =  -1.9428902930940E-16
(PID.TID 0000.0001) %MON obc_W_uVel_Int               =   4.4822851314926E+05
(PID.TID 0000.0001) // =======================================================
(PID.TID 0000.0001) // End OBCS MONITOR field statistics
(PID.TID 0000.0001) // =======================================================
(PID.TID 0000.0001) SOLVE_FOR_PRESSURE: putPmEinXvector =    F
 cg2d: Sum(rhs),rhsMax =  -3.65566980062518E-15  7.62536827206441E-02
 cg2d: Sum(rhs),rhsMax =  -3.81967366045529E-14  1.29346364235498E-01
 cg2d: Sum(rhs),rhsMax =  -6.43461543812276E-15  1.63589740546744E-01
 cg2d: Sum(rhs),rhsMax =   5.97822540305147E-14  1.83956985476451E-01
 cg2d: Sum(rhs),rhsMax =   1.37430214893137E-13  1.96245991015315E-01
 cg2d: Sum(rhs),rhsMax =   2.67599449454330E-13  2.04099221541001E-01
 cg2d: Sum(rhs),rhsMax =   3.26996619766972E-13  2.09775992711964E-01
 cg2d: Sum(rhs),rhsMax =   3.92174994890202E-13  2.15011088848085E-01
 cg2d: Sum(rhs),rhsMax =   5.05810571486450E-13  2.20115936974997E-01
 cg2d: Sum(rhs),rhsMax =   6.48415660932679E-13  2.24954413679159E-01
 cg2d: Sum(rhs),rhsMax =   7.63398760547766E-13  2.29602215487554E-01
 cg2d: Sum(rhs),rhsMax =   6.28724888584390E-13  2.34205335376973E-01
 cg2d: Sum(rhs),rhsMax =   5.54075625203807E-13  2.38814235787834E-01
 cg2d: Sum(rhs),rhsMax =   4.66192833267187E-13  2.43430678166339E-01
 cg2d: Sum(rhs),rhsMax =   2.65898263519981E-13  2.48007131156603E-01
 cg2d: Sum(rhs),rhsMax =   1.95604775323088E-13  2.52445063668374E-01
 cg2d: Sum(rhs),rhsMax =   1.27902824417540E-13  2.56593139873564E-01
 cg2d: Sum(rhs),rhsMax =   1.69866076674135E-13  2.60902281210841E-01
 cg2d: Sum(rhs),rhsMax =   1.28988237840522E-13  2.65279401192735E-01
 cg2d: Sum(rhs),rhsMax =   9.20932654374857E-14  2.69038216708109E-01
 cg2d: Sum(rhs),rhsMax =   3.76790372650990E-14  2.73564142577708E-01
 cg2d: Sum(rhs),rhsMax =   1.25224920126413E-14  2.77226478485767E-01
 cg2d: Sum(rhs),rhsMax =   1.75094594316363E-13  2.81583582200429E-01
 cg2d: Sum(rhs),rhsMax =   1.79661757146718E-13  2.85456764170155E-01
 cg2d: Sum(rhs),rhsMax =   2.13120701511802E-13  2.89079217801521E-01
 cg2d: Sum(rhs),rhsMax =   2.06950061805903E-13  2.93322057045984E-01
 cg2d: Sum(rhs),rhsMax =   2.54443660897287E-13  2.97108608192222E-01
 cg2d: Sum(rhs),rhsMax =   3.51094939796473E-13  3.00535701306110E-01
 cg2d: Sum(rhs),rhsMax =   3.98544402436195E-13  3.04262803627767E-01
 cg2d: Sum(rhs),rhsMax =   4.35241330687874E-13  3.08244841691681E-01
 cg2d: Sum(rhs),rhsMax =   4.85657222987559E-13  3.12012913261301E-01
 cg2d: Sum(rhs),rhsMax =   5.15885823101046E-13  3.15624839566497E-01
 cg2d: Sum(rhs),rhsMax =   6.12337356384676E-13  3.19130248890483E-01
 cg2d: Sum(rhs),rhsMax =   7.44857571888941E-13  3.22570414285947E-01
 cg2d: Sum(rhs),rhsMax =   8.24721584427590E-13  3.25978151304548E-01
 cg2d: Sum(rhs),rhsMax =   9.03580595762454E-13  3.29377765088854E-01
 cg2d: Sum(rhs),rhsMax =   9.35935140153332E-13  3.32784994970988E-01
 cg2d: Sum(rhs),rhsMax =   1.01374811323218E-12  3.36206946368292E-01
 cg2d: Sum(rhs),rhsMax =   1.06558989063088E-12  3.39641995748730E-01
 cg2d: Sum(rhs),rhsMax =   1.11282684456260E-12  3.43079666382485E-01
 cg2d: Sum(rhs),rhsMax =   1.17702722568502E-12  3.46500479349619E-01
 cg2d: Sum(rhs),rhsMax =   1.24168904325206E-12  3.49875792241771E-01
 cg2d: Sum(rhs),rhsMax =   1.15971815484173E-12  3.53167645540829E-01
 cg2d: Sum(rhs),rhsMax =   1.19687940114410E-12  3.56328644384536E-01
 cg2d: Sum(rhs),rhsMax =   1.29133509441104E-12  3.59301911546287E-01
 cg2d: Sum(rhs),rhsMax =   1.39559197531725E-12  3.62021156378988E-01
 cg2d: Sum(rhs),rhsMax =   1.47558354424149E-12  3.65120983022801E-01
 cg2d: Sum(rhs),rhsMax =   1.55551960201450E-12  3.68782391325825E-01
 cg2d: Sum(rhs),rhsMax =   1.62614366416847E-12  3.72153290564069E-01
 cg2d: Sum(rhs),rhsMax =   1.68473568429306E-12  3.75134900038024E-01
 cg2d: Sum(rhs),rhsMax =   1.75479075714691E-12  3.77619668260787E-01
 cg2d: Sum(rhs),rhsMax =   1.81377135533012E-12  3.80520081465618E-01
 cg2d: Sum(rhs),rhsMax =   1.84569026728809E-12  3.84233433257002E-01
 cg2d: Sum(rhs),rhsMax =   1.87777571269976E-12  3.87330931623900E-01
 cg2d: Sum(rhs),rhsMax =   1.97408756008599E-12  3.89682278740801E-01
 cg2d: Sum(rhs),rhsMax =   2.04902761424819E-12  3.92640629047457E-01
 cg2d: Sum(rhs),rhsMax =   2.07489581072196E-12  4.00329707231193E-01
 cg2d: Sum(rhs),rhsMax =   2.04614103438416E-12  4.16728835098375E-01
 cg2d: Sum(rhs),rhsMax =   1.95898852695109E-12  4.40237413135252E-01
 cg2d: Sum(rhs),rhsMax =   1.84074977482851E-12  4.73797108558524E-01
 cg2d: Sum(rhs),rhsMax =   1.71040959173752E-12  5.21096028991763E-01
 cg2d: Sum(rhs),rhsMax =   1.53455026463689E-12  5.72110398438659E-01
 cg2d: Sum(rhs),rhsMax =   1.46305190185103E-12  6.19598260341145E-01
 cg2d: Sum(rhs),rhsMax =   1.44328993201270E-12  6.62103702443116E-01
 cg2d: Sum(rhs),rhsMax =   1.37323485915886E-12  6.98302780441351E-01
 cg2d: Sum(rhs),rhsMax =   1.32815980435907E-12  7.27075816465453E-01
 cg2d: Sum(rhs),rhsMax =   1.33537625401914E-12  7.47567578742777E-01
 cg2d: Sum(rhs),rhsMax =   1.34803279649987E-12  7.59230747682089E-01
 cg2d: Sum(rhs),rhsMax =   1.38522526782481E-12  7.61849614381793E-01
 cg2d: Sum(rhs),rhsMax =   1.42241773914975E-12  7.55542741779499E-01
 cg2d: Sum(rhs),rhsMax =   1.51723078545274E-12  7.40745181443399E-01
 cg2d: Sum(rhs),rhsMax =   1.61415325550252E-12  7.18172532727919E-01
 cg2d: Sum(rhs),rhsMax =   1.73083769539062E-12  6.88770526519258E-01
 cg2d: Sum(rhs),rhsMax =   1.76192394008012E-12  6.53654720925962E-01
 cg2d: Sum(rhs),rhsMax =   1.71718195218773E-12  6.59899569422178E-01
 cg2d: Sum(rhs),rhsMax =   1.55075952079642E-12  7.05854845417228E-01
 cg2d: Sum(rhs),rhsMax =   1.43995926293883E-12  7.46791141093690E-01
 cg2d: Sum(rhs),rhsMax =   1.33182354034034E-12  7.81637066857626E-01
 cg2d: Sum(rhs),rhsMax =   1.24600330053681E-12  8.09488176093072E-01
 cg2d: Sum(rhs),rhsMax =   1.16018306073329E-12  8.29648061664497E-01
 cg2d: Sum(rhs),rhsMax =   1.07269748639283E-12  8.41658550692976E-01
 cg2d: Sum(rhs),rhsMax =   1.03123065642308E-12  8.45317162879272E-01
 cg2d: Sum(rhs),rhsMax =   9.96258631147384E-13  8.40680963499374E-01
 cg2d: Sum(rhs),rhsMax =   9.58566559461360E-13  8.28056954240891E-01
 cg2d: Sum(rhs),rhsMax =   9.10216346738935E-13  8.07980108367021E-01
 cg2d: Sum(rhs),rhsMax =   8.33222379981180E-13  7.81180978121471E-01
 cg2d: Sum(rhs),rhsMax =   7.17453874088392E-13  7.48545395318687E-01
 cg2d: Sum(rhs),rhsMax =   6.98219260186761E-13  7.11069259124374E-01
 cg2d: Sum(rhs),rhsMax =   6.64607258116234E-13  6.69811450261833E-01
 cg2d: Sum(rhs),rhsMax =   6.29968299747929E-13  6.25847773129052E-01
 cg2d: Sum(rhs),rhsMax =   5.82839332352592E-13  5.80228352871131E-01
 cg2d: Sum(rhs),rhsMax =   5.45036238364105E-13  5.33940671206347E-01
 cg2d: Sum(rhs),rhsMax =   5.52696777234019E-13  4.87879907860116E-01
 cg2d: Sum(rhs),rhsMax =   5.89653326166228E-13  4.42827037704009E-01
 cg2d: Sum(rhs),rhsMax =   6.12093709051464E-13  3.99435038925099E-01
 cg2d: Sum(rhs),rhsMax =   6.10470007877950E-13  3.58222891238536E-01
 cg2d: Sum(rhs),rhsMax =   5.34239319449625E-13  3.25153774840853E-01
 cg2d: Sum(rhs),rhsMax =   5.54903345495461E-13  3.15817788093852E-01
 cg2d: Sum(rhs),rhsMax =   5.17544340716825E-13  3.08235741138965E-01
 cg2d: Sum(rhs),rhsMax =   4.80546158421191E-13  3.02323205174098E-01
 cg2d: Sum(rhs),rhsMax =   4.43131642491323E-13  2.97215184153239E-01
 cg2d: Sum(rhs),rhsMax =   4.19241030780171E-13  2.91402239861968E-01
 cg2d: Sum(rhs),rhsMax =   3.61731478104588E-13  2.86346800112407E-01
 cg2d: Sum(rhs),rhsMax =   2.82301959586562E-13  2.81333582752702E-01
 cg2d: Sum(rhs),rhsMax =   2.01658134635352E-13  2.75901356758275E-01
 cg2d: Sum(rhs),rhsMax =   1.82770465428916E-13  2.71072061602631E-01
 cg2d: Sum(rhs),rhsMax =   1.24456001060480E-13  2.66264401284348E-01
 cg2d: Sum(rhs),rhsMax =   5.60350377210028E-14  2.61131709148564E-01
 cg2d: Sum(rhs),rhsMax =   2.72629141484515E-14  2.56273488902968E-01
 cg2d: Sum(rhs),rhsMax =  -2.55108434377149E-14  2.51679321683097E-01
 cg2d: Sum(rhs),rhsMax =  -7.98007493418851E-14  2.46845861522530E-01
 cg2d: Sum(rhs),rhsMax =  -1.30860600133786E-13  2.41845139866965E-01
 cg2d: Sum(rhs),rhsMax =  -2.08170286564169E-13  2.37426748821504E-01
 cg2d: Sum(rhs),rhsMax =  -2.79797018887251E-13  2.32882489767399E-01
 cg2d: Sum(rhs),rhsMax =  -3.33358340931511E-13  2.28215997569610E-01
 cg2d: Sum(rhs),rhsMax =  -4.84407652878716E-13  2.23473414524312E-01
 cg2d: Sum(rhs),rhsMax =  -6.50960188530725E-13  2.19099236216311E-01
 cg2d: Sum(rhs),rhsMax =  -7.61295540496754E-13  2.14721850977340E-01
 cg2d: Sum(rhs),rhsMax =  -8.69785146684343E-13  2.10284039447117E-01
 cg2d: Sum(rhs),rhsMax =  -9.21356740901658E-13  2.05812990806909E-01
 cg2d: Sum(rhs),rhsMax =  -8.82828532500213E-13  2.01329487831428E-01
 cg2d: Sum(rhs),rhsMax =  -9.10781866592103E-13  1.97021535907474E-01
 cg2d: Sum(rhs),rhsMax =  -9.79119563204733E-13  1.92778270287641E-01
 cg2d: Sum(rhs),rhsMax =  -9.55322626561284E-13  1.88504000671493E-01
 cg2d: Sum(rhs),rhsMax =  -9.25924267813905E-13  1.84202116997409E-01
 cg2d: Sum(rhs),rhsMax =  -8.52035456078148E-13  1.79868738763800E-01
 cg2d: Sum(rhs),rhsMax =  -8.78949690807929E-13  1.75492024511058E-01
 cg2d: Sum(rhs),rhsMax =  -9.11840047912449E-13  1.71051342281135E-01
 cg2d: Sum(rhs),rhsMax =  -8.73866951023317E-13  1.66542713793927E-01
 cg2d: Sum(rhs),rhsMax =  -9.00951188653742E-13  1.62011782397693E-01
 cg2d: Sum(rhs),rhsMax =  -8.99103708151827E-13  1.57294777811359E-01
 cg2d: Sum(rhs),rhsMax =  -8.92830948062695E-13  1.52336183503770E-01
 cg2d: Sum(rhs),rhsMax =  -9.09428782280841E-13  1.47070241052841E-01
 cg2d: Sum(rhs),rhsMax =  -8.96839894015677E-13  1.41422996094428E-01
 cg2d: Sum(rhs),rhsMax =  -9.04876867879878E-13  1.35468727057383E-01
 cg2d: Sum(rhs),rhsMax =  -9.12131481456413E-13  1.29068475871120E-01
 cg2d: Sum(rhs),rhsMax =  -9.21502457673640E-13  1.22067626873920E-01
 cg2d: Sum(rhs),rhsMax =  -9.43398137387419E-13  1.14611945531832E-01
 cg2d: Sum(rhs),rhsMax =  -9.63267660081257E-13  1.06538732488529E-01
 cg2d: Sum(rhs),rhsMax =  -1.00430427862896E-12  9.78992596735025E-02
 cg2d: Sum(rhs),rhsMax =  -1.07084133227353E-12  8.86598585724390E-02
 cg2d: Sum(rhs),rhsMax =  -1.15230394670540E-12  7.89202468824826E-02
 cg2d: Sum(rhs),rhsMax =  -1.26642446529601E-12  6.86006652812222E-02
 cg2d: Sum(rhs),rhsMax =  -1.44440709393123E-12  5.79043156485717E-02
 cg2d: Sum(rhs),rhsMax =  -1.71130470905112E-12  4.68105621224581E-02
 cg2d: Sum(rhs),rhsMax =  -2.22590695875269E-12  3.53982621062149E-02
 cg2d: Sum(rhs),rhsMax =  -3.25577065307669E-12  2.38664341090424E-02
 cg2d: Sum(rhs),rhsMax =  -6.20098417059012E-12  1.22939991398840E-02
 cg2d: Sum(rhs),rhsMax =  -1.11848308392837E-11  6.80455067072510E-03
 cg2d: Sum(rhs),rhsMax =  -6.44229114499240E-12  1.17682480324468E-02
 cg2d: Sum(rhs),rhsMax =  -3.30893645816843E-12  2.29826262033540E-02
 cg2d: Sum(rhs),rhsMax =  -2.17808410196696E-12  3.40025180622563E-02
 cg2d: Sum(rhs),rhsMax =  -1.65008284813695E-12  4.46677686580802E-02
 cg2d: Sum(rhs),rhsMax =  -1.24263793699342E-12  5.49028465332917E-02
 cg2d: Sum(rhs),rhsMax =  -1.00056768426171E-12  6.46393741121758E-02
 cg2d: Sum(rhs),rhsMax =  -8.05730482333900E-13  7.38105292754696E-02
 cg2d: Sum(rhs),rhsMax =  -6.76396438858973E-13  8.23546492276111E-02
 cg2d: Sum(rhs),rhsMax =  -5.63805946374174E-13  9.02553069689231E-02
 cg2d: Sum(rhs),rhsMax =  -4.54809800931599E-13  9.76274468466495E-02
 cg2d: Sum(rhs),rhsMax =  -3.58994084459496E-13  1.04279176202111E-01
 cg2d: Sum(rhs),rhsMax =  -2.76851458425043E-13  1.10506319453253E-01
 cg2d: Sum(rhs),rhsMax =  -2.31453745058730E-13  1.16094969422908E-01
 cg2d: Sum(rhs),rhsMax =  -1.45515544058838E-13  1.21247646181795E-01
 cg2d: Sum(rhs),rhsMax =  -8.90745810444571E-14  1.26005286977394E-01
 cg2d: Sum(rhs),rhsMax =  -4.39995262446757E-14  1.30348421474347E-01
 cg2d: Sum(rhs),rhsMax =   1.09010023230383E-14  1.34349214029253E-01
 cg2d: Sum(rhs),rhsMax =   4.25770529943748E-14  1.38138036803503E-01
 cg2d: Sum(rhs),rhsMax =   8.46892000971877E-14  1.41753620355224E-01
 cg2d: Sum(rhs),rhsMax =   1.28244637132013E-13  1.45179260551839E-01
 cg2d: Sum(rhs),rhsMax =   1.51781365254067E-13  1.48450347222585E-01
 cg2d: Sum(rhs),rhsMax =   1.59636193153290E-13  1.51593393684228E-01
 cg2d: Sum(rhs),rhsMax =   2.63025712321507E-13  1.54627424213672E-01
 cg2d: Sum(rhs),rhsMax =   3.56492613207138E-13  1.57565277452427E-01
 cg2d: Sum(rhs),rhsMax =   4.61033988763404E-13  1.60481496590061E-01
 cg2d: Sum(rhs),rhsMax =   5.32081323445510E-13  1.63407104796211E-01
 cg2d: Sum(rhs),rhsMax =   4.69367600341997E-13  1.66272378958815E-01
 cg2d: Sum(rhs),rhsMax =   4.87720974717831E-13  1.69077279399312E-01
 cg2d: Sum(rhs),rhsMax =   4.88283025124048E-13  1.71819071808689E-01
 cg2d: Sum(rhs),rhsMax =   5.05623320989912E-13  1.74492789144874E-01
 cg2d: Sum(rhs),rhsMax =   4.70685990183739E-13  1.77232669273017E-01
 cg2d: Sum(rhs),rhsMax =   3.84699216926521E-13  1.80031722004742E-01
 cg2d: Sum(rhs),rhsMax =   2.67709465706645E-13  1.82776581217006E-01
 cg2d: Sum(rhs),rhsMax =   1.54123241946635E-13  1.85461302726185E-01
 cg2d: Sum(rhs),rhsMax =   3.16795201182885E-14  1.88081926151544E-01
 cg2d: Sum(rhs),rhsMax =  -3.49026363366534E-15  1.90968247354331E-01
 cg2d: Sum(rhs),rhsMax =  -5.20417042793042E-16  1.93858172092700E-01
 cg2d: Sum(rhs),rhsMax =  -8.04113720054289E-14  1.96734120631032E-01
 cg2d: Sum(rhs),rhsMax =  -9.85461712232905E-14  1.99619916958105E-01
 cg2d: Sum(rhs),rhsMax =  -1.52128309949262E-13  2.02810758678267E-01
 cg2d: Sum(rhs),rhsMax =  -1.64743219066565E-13  2.06251546508781E-01
 cg2d: Sum(rhs),rhsMax =  -2.13870587906229E-13  2.09882985713543E-01
 cg2d: Sum(rhs),rhsMax =  -2.57585619500844E-13  2.13815909048683E-01
 cg2d: Sum(rhs),rhsMax =  -2.90101276334553E-13  2.18204728018776E-01
 cg2d: Sum(rhs),rhsMax =  -3.26627613844721E-13  2.23248816505897E-01
 cg2d: Sum(rhs),rhsMax =  -3.87190279838023E-13  2.29400547988810E-01
 cg2d: Sum(rhs),rhsMax =  -3.97987198752503E-13  2.36384521506430E-01
 cg2d: Sum(rhs),rhsMax =  -4.32820446150117E-13  2.44314397650865E-01
 cg2d: Sum(rhs),rhsMax =  -4.61741755941603E-13  2.53383535426064E-01
 cg2d: Sum(rhs),rhsMax =  -4.80171458150380E-13  2.63885578341939E-01
 cg2d: Sum(rhs),rhsMax =  -4.98046048846845E-13  2.76087769509856E-01
 cg2d: Sum(rhs),rhsMax =  -5.01987340584265E-13  2.90396129739463E-01
 cg2d: Sum(rhs),rhsMax =  -5.79591930005563E-13  3.06970180440608E-01
 cg2d: Sum(rhs),rhsMax =  -5.87252468875477E-13  3.26004736931612E-01
 cg2d: Sum(rhs),rhsMax =  -6.75126621274558E-13  3.45450582027796E-01
 cg2d: Sum(rhs),rhsMax =  -6.73128219830232E-13  3.64532164043680E-01
 cg2d: Sum(rhs),rhsMax =  -7.05824287905443E-13  3.83072583336576E-01
 cg2d: Sum(rhs),rhsMax =  -7.14983627858601E-13  4.00893715378947E-01
 cg2d: Sum(rhs),rhsMax =  -7.42572670020536E-13  4.17819202007897E-01
 cg2d: Sum(rhs),rhsMax =  -7.65054686269195E-13  4.33677520642405E-01
 cg2d: Sum(rhs),rhsMax =  -7.95696841748850E-13  4.48305054902943E-01
 cg2d: Sum(rhs),rhsMax =  -8.15791878494565E-13  4.61549087672516E-01
 cg2d: Sum(rhs),rhsMax =  -9.06164032699053E-13  4.73270637878262E-01
 cg2d: Sum(rhs),rhsMax =  -9.88098491916389E-13  4.83347065178401E-01
 cg2d: Sum(rhs),rhsMax =  -1.05870867628255E-12  4.91674372245199E-01
 cg2d: Sum(rhs),rhsMax =  -1.15163434344367E-12  4.98169142360144E-01
 cg2d: Sum(rhs),rhsMax =  -1.19870779968778E-12  5.02770060021716E-01
 cg2d: Sum(rhs),rhsMax =  -1.23445698108071E-12  5.05438970511172E-01
 cg2d: Sum(rhs),rhsMax =  -1.26731958260962E-12  5.06161457159003E-01
 cg2d: Sum(rhs),rhsMax =  -1.30784272300843E-12  5.04946933386418E-01
 cg2d: Sum(rhs),rhsMax =  -1.34103839144473E-12  5.01828236389829E-01
 cg2d: Sum(rhs),rhsMax =  -1.39455114123166E-12  4.96860739421868E-01
 cg2d: Sum(rhs),rhsMax =  -1.51634260703304E-12  4.90121014756341E-01
 cg2d: Sum(rhs),rhsMax =  -1.60893520728678E-12  4.81705091053003E-01
 cg2d: Sum(rhs),rhsMax =  -1.69841918307156E-12  4.71726363392618E-01
 cg2d: Sum(rhs),rhsMax =  -1.79967152291738E-12  4.60313214237265E-01
 cg2d: Sum(rhs),rhsMax =  -1.87772020154853E-12  4.47606395793031E-01
 cg2d: Sum(rhs),rhsMax =  -1.94011473553246E-12  4.38438378600998E-01
 cg2d: Sum(rhs),rhsMax =  -1.92779125995912E-12  4.40708766608576E-01
 cg2d: Sum(rhs),rhsMax =  -1.93034477291576E-12  4.41389576957563E-01
 cg2d: Sum(rhs),rhsMax =  -1.97963867520912E-12  4.40485975099640E-01
 cg2d: Sum(rhs),rhsMax =  -2.04958272576050E-12  4.38020277410370E-01
 cg2d: Sum(rhs),rhsMax =  -2.15127915481617E-12  4.34031421244087E-01
 cg2d: Sum(rhs),rhsMax =  -2.25863772129742E-12  4.28574119839252E-01
 cg2d: Sum(rhs),rhsMax =  -2.41950903756560E-12  4.21717742267537E-01
 cg2d: Sum(rhs),rhsMax =  -2.55029330986645E-12  4.13544951547623E-01
 cg2d: Sum(rhs),rhsMax =  -2.65698574253292E-12  4.04150136174289E-01
 cg2d: Sum(rhs),rhsMax =  -2.76856315650775E-12  3.93637674293474E-01
 cg2d: Sum(rhs),rhsMax =  -2.91378032812872E-12  3.82120066634230E-01
 cg2d: Sum(rhs),rhsMax =  -2.97506463908803E-12  3.69716011665227E-01
 cg2d: Sum(rhs),rhsMax =  -3.03690406155965E-12  3.56548454885939E-01
 cg2d: Sum(rhs),rhsMax =  -3.10040881856821E-12  3.42742639313740E-01
 cg2d: Sum(rhs),rhsMax =  -3.14737125250986E-12  3.28424190051807E-01
 cg2d: Sum(rhs),rhsMax =  -3.20998783109872E-12  3.13717297324082E-01
 cg2d: Sum(rhs),rhsMax =  -3.29547500399485E-12  2.98743062922284E-01
 cg2d: Sum(rhs),rhsMax =  -3.35886873870095E-12  2.83617999261181E-01
 cg2d: Sum(rhs),rhsMax =  -3.40971695322878E-12  2.68452701717591E-01
 cg2d: Sum(rhs),rhsMax =  -3.48332473976143E-12  2.53350713337879E-01
 cg2d: Sum(rhs),rhsMax =  -3.53439499889419E-12  2.38407594877621E-01
 cg2d: Sum(rhs),rhsMax =  -3.70614650080370E-12  2.23710207147852E-01
 cg2d: Sum(rhs),rhsMax =  -3.84636766881385E-12  2.09336203994517E-01
 cg2d: Sum(rhs),rhsMax =  -3.99535959871855E-12  1.95353728296715E-01
 cg2d: Sum(rhs),rhsMax =  -4.20108392518159E-12  1.81821299663459E-01
 cg2d: Sum(rhs),rhsMax =  -4.44599912441390E-12  1.68787879115715E-01
 cg2d: Sum(rhs),rhsMax =  -4.68014516030735E-12  1.56293089923971E-01
 cg2d: Sum(rhs),rhsMax =  -4.79094541816494E-12  1.50058515082978E-01
 cg2d: Sum(rhs),rhsMax =  -4.78961315053539E-12  1.46120860584889E-01
 cg2d: Sum(rhs),rhsMax =  -4.78994621744278E-12  1.42476418950359E-01
 cg2d: Sum(rhs),rhsMax =  -4.81137352181804E-12  1.39049754653887E-01
 cg2d: Sum(rhs),rhsMax =  -4.77329287207340E-12  1.35784997948949E-01
 cg2d: Sum(rhs),rhsMax =  -4.80615547360230E-12  1.32641225584168E-01
 cg2d: Sum(rhs),rhsMax =  -4.79249973039941E-12  1.29588600846772E-01
 cg2d: Sum(rhs),rhsMax =  -4.82192064055198E-12  1.26641422420141E-01
 cg2d: Sum(rhs),rhsMax =  -4.81448214628699E-12  1.23757470077230E-01
 cg2d: Sum(rhs),rhsMax =  -4.81303885635498E-12  1.20910079247674E-01
 cg2d: Sum(rhs),rhsMax =  -4.85816942230599E-12  1.18088858555864E-01
 cg2d: Sum(rhs),rhsMax =  -4.83663109562826E-12  1.15285300310765E-01
 cg2d: Sum(rhs),rhsMax =  -4.85977924569170E-12  1.12491864502429E-01
 cg2d: Sum(rhs),rhsMax =  -4.84928763810899E-12  1.09744233614300E-01
 cg2d: Sum(rhs),rhsMax =  -4.93538543366867E-12  1.07324211507072E-01
 cg2d: Sum(rhs),rhsMax =  -4.99589258851074E-12  1.04883953226425E-01
 cg2d: Sum(rhs),rhsMax =  -4.99283947519302E-12  1.02402562330968E-01
 cg2d: Sum(rhs),rhsMax =  -5.11579667517026E-12  9.98658941888929E-02
 cg2d: Sum(rhs),rhsMax =  -5.19551068833835E-12  9.72582212726595E-02
 cg2d: Sum(rhs),rhsMax =  -5.24122412137729E-12  9.46013414999846E-02
 cg2d: Sum(rhs),rhsMax =  -5.29964960804818E-12  9.18704038559763E-02
 cg2d: Sum(rhs),rhsMax =  -5.45835598941835E-12  8.90173416678325E-02
 cg2d: Sum(rhs),rhsMax =  -5.59163826352460E-12  8.60381670006777E-02
 cg2d: Sum(rhs),rhsMax =  -5.67781932581113E-12  8.29755086605414E-02
 cg2d: Sum(rhs),rhsMax =  -5.83444403901012E-12  7.97402815403260E-02
 cg2d: Sum(rhs),rhsMax =  -6.08171846216976E-12  7.63841309176885E-02
 cg2d: Sum(rhs),rhsMax =  -6.40465458445760E-12  7.28605082700651E-02
 cg2d: Sum(rhs),rhsMax =  -6.80124012664152E-12  6.91961755339969E-02
 cg2d: Sum(rhs),rhsMax =  -7.06945613160315E-12  6.53480002487201E-02
 cg2d: Sum(rhs),rhsMax =  -7.64742436043520E-12  6.13788159245602E-02
 cg2d: Sum(rhs),rhsMax =  -8.36833380368773E-12  5.72356181258856E-02
 cg2d: Sum(rhs),rhsMax =  -9.18483344936050E-12  5.29349481501777E-02
 cg2d: Sum(rhs),rhsMax =  -1.01273295305404E-11  4.85040346279308E-02
 cg2d: Sum(rhs),rhsMax =  -1.13139636548354E-11  4.39468548085127E-02
 cg2d: Sum(rhs),rhsMax =  -1.27337029809382E-11  3.92677858426145E-02
 cg2d: Sum(rhs),rhsMax =  -1.45290030006962E-11  3.44832997168501E-02
 cg2d: Sum(rhs),rhsMax =  -1.69223385304562E-11  2.96288266135626E-02
 cg2d: Sum(rhs),rhsMax =  -2.02441050034530E-11  2.48285524171332E-02
 cg2d: Sum(rhs),rhsMax =  -2.48219708676167E-11  2.02336484823539E-02
 cg2d: Sum(rhs),rhsMax =  -3.21988824492081E-11  1.56400129343865E-02
 cg2d: Sum(rhs),rhsMax =  -4.52886408930375E-11  1.10997353998738E-02
 cg2d: Sum(rhs),rhsMax =  -6.27700738609072E-11  8.01435638040775E-03
 cg2d: Sum(rhs),rhsMax =  -7.15120462846386E-11  7.02717295309915E-03
 cg2d: Sum(rhs),rhsMax =  -6.92175206040702E-11  7.28001134536376E-03
 cg2d: Sum(rhs),rhsMax =  -4.20173340565100E-11  1.20067696762624E-02
 cg2d: Sum(rhs),rhsMax =  -2.99865965391888E-11  1.68405534396071E-02
 cg2d: Sum(rhs),rhsMax =  -2.33821295658743E-11  2.16644038328436E-02
 cg2d: Sum(rhs),rhsMax =  -1.92258986508875E-11  2.64268398046846E-02
 cg2d: Sum(rhs),rhsMax =  -1.63815905285247E-11  3.11062901571538E-02
 cg2d: Sum(rhs),rhsMax =  -1.43500905602778E-11  3.56671302469769E-02
 cg2d: Sum(rhs),rhsMax =  -1.28146521172212E-11  4.01262478375409E-02
 cg2d: Sum(rhs),rhsMax =  -1.16061604771289E-11  4.44458760987626E-02
 cg2d: Sum(rhs),rhsMax =  -1.06553932344156E-11  4.86413423121953E-02
 cg2d: Sum(rhs),rhsMax =  -9.88251147582275E-12  5.26977347872101E-02
 cg2d: Sum(rhs),rhsMax =  -9.24080256758941E-12  5.66096512552401E-02
 cg2d: Sum(rhs),rhsMax =  -8.71838712335204E-12  6.04030381348632E-02
 cg2d: Sum(rhs),rhsMax =  -8.31207325191485E-12  6.40410456410170E-02
 cg2d: Sum(rhs),rhsMax =  -7.94167509532429E-12  6.75678286302070E-02
 cg2d: Sum(rhs),rhsMax =  -7.57202633927534E-12  7.09747807159795E-02
 cg2d: Sum(rhs),rhsMax =  -7.32564009453540E-12  7.42511067816903E-02
 cg2d: Sum(rhs),rhsMax =  -7.02318758705189E-12  7.74194236410706E-02
 cg2d: Sum(rhs),rhsMax =  -6.87680468125507E-12  8.05150752257801E-02
 cg2d: Sum(rhs),rhsMax =  -6.65328903082241E-12  8.35107018239937E-02
 cg2d: Sum(rhs),rhsMax =  -6.53055387545010E-12  8.64156442479720E-02
 cg2d: Sum(rhs),rhsMax =  -6.34126084975151E-12  8.92382239884384E-02
 cg2d: Sum(rhs),rhsMax =  -6.21391826882700E-12  9.20070007405925E-02
 cg2d: Sum(rhs),rhsMax =  -6.12804251787225E-12  9.47320901430091E-02
 cg2d: Sum(rhs),rhsMax =  -6.11438677466936E-12  9.73958210284526E-02
 cg2d: Sum(rhs),rhsMax =  -6.01702021540973E-12  1.00002042432694E-01
 cg2d: Sum(rhs),rhsMax =  -5.95440363682087E-12  1.02553334893249E-01
 cg2d: Sum(rhs),rhsMax =  -5.88767923304090E-12  1.05051133777944E-01
 cg2d: Sum(rhs),rhsMax =  -5.86763970744641E-12  1.07541212233444E-01
 cg2d: Sum(rhs),rhsMax =  -5.77793368705670E-12  1.09999992133578E-01
 cg2d: Sum(rhs),rhsMax =  -5.72808467325103E-12  1.12413038856277E-01
 cg2d: Sum(rhs),rhsMax =  -5.67457192346410E-12  1.14779548455613E-01
 cg2d: Sum(rhs),rhsMax =  -5.64259750035490E-12  1.17098306076424E-01
 cg2d: Sum(rhs),rhsMax =  -5.67002000906314E-12  1.19419730127873E-01
 cg2d: Sum(rhs),rhsMax =  -5.74507108552780E-12  1.21734582109769E-01
 cg2d: Sum(rhs),rhsMax =  -5.59130519661721E-12  1.24008848817176E-01
 cg2d: Sum(rhs),rhsMax =  -5.48250334020395E-12  1.26242305489348E-01
 cg2d: Sum(rhs),rhsMax =  -5.48372458553104E-12  1.28439434362657E-01
 cg2d: Sum(rhs),rhsMax =  -5.34294830600857E-12  1.30710807022065E-01
 cg2d: Sum(rhs),rhsMax =  -5.16431342134638E-12  1.32958673697831E-01
 cg2d: Sum(rhs),rhsMax =  -5.01820807130571E-12  1.36378741884470E-01
 cg2d: Sum(rhs),rhsMax =  -4.72666350503914E-12  1.43339162023344E-01
 cg2d: Sum(rhs),rhsMax =  -4.38005187675117E-12  1.52435915166898E-01
 cg2d: Sum(rhs),rhsMax =  -4.09583478244713E-12  1.61726762637938E-01
 cg2d: Sum(rhs),rhsMax =  -3.76143560743003E-12  1.71177692754636E-01
 cg2d: Sum(rhs),rhsMax =  -3.51940698806175E-12  1.80751560170261E-01
 cg2d: Sum(rhs),rhsMax =  -3.27737836869346E-12  1.90408289200158E-01
 cg2d: Sum(rhs),rhsMax =  -3.08819636529734E-12  2.00105124901376E-01
 cg2d: Sum(rhs),rhsMax =  -2.88680190863033E-12  2.09796930655121E-01
 cg2d: Sum(rhs),rhsMax =  -2.72804001610893E-12  2.19436530184179E-01
 cg2d: Sum(rhs),rhsMax =  -2.59037236105542E-12  2.28975090684010E-01
 cg2d: Sum(rhs),rhsMax =  -2.43138842392909E-12  2.38362542514639E-01
 cg2d: Sum(rhs),rhsMax =  -2.28794760914752E-12  2.47548031053627E-01
 cg2d: Sum(rhs),rhsMax =  -2.18203233259828E-12  2.56480394828892E-01
 cg2d: Sum(rhs),rhsMax =  -2.06457073659294E-12  2.65108663644810E-01
 cg2d: Sum(rhs),rhsMax =  -1.97042382410473E-12  2.73382569731593E-01
 cg2d: Sum(rhs),rhsMax =  -1.87094784109831E-12  2.81253064533589E-01
 cg2d: Sum(rhs),rhsMax =  -1.78168590991845E-12  2.88672833461277E-01
 cg2d: Sum(rhs),rhsMax =  -1.62381219581675E-12  2.95596800796417E-01
 cg2d: Sum(rhs),rhsMax =  -1.50146561850306E-12  3.01982616930069E-01
 cg2d: Sum(rhs),rhsMax =  -1.46116452270917E-12  3.07791120255681E-01
 cg2d: Sum(rhs),rhsMax =  -1.40698563910746E-12  3.12986766360903E-01
 cg2d: Sum(rhs),rhsMax =  -1.34126043604965E-12  3.17538017632942E-01
 cg2d: Sum(rhs),rhsMax =  -1.32516220219259E-12  3.21417687015760E-01
 cg2d: Sum(rhs),rhsMax =  -1.45661260830821E-12  3.24603230420467E-01
 cg2d: Sum(rhs),rhsMax =  -1.50701673362619E-12  3.27076983182206E-01
 cg2d: Sum(rhs),rhsMax =  -1.54520840567329E-12  3.28826338079535E-01
 cg2d: Sum(rhs),rhsMax =  -1.56630264314117E-12  3.31976117166994E-01
 cg2d: Sum(rhs),rhsMax =  -1.58262292160316E-12  3.42314101868203E-01
 cg2d: Sum(rhs),rhsMax =  -1.63014046705712E-12  3.52130773113879E-01
 cg2d: Sum(rhs),rhsMax =  -1.60793600656461E-12  3.61370537816064E-01
 cg2d: Sum(rhs),rhsMax =  -1.57684976187511E-12  3.69980701988116E-01
 cg2d: Sum(rhs),rhsMax =  -1.56197277334513E-12  3.77911993661434E-01
 cg2d: Sum(rhs),rhsMax =  -1.54432022725359E-12  3.85119054048531E-01
 cg2d: Sum(rhs),rhsMax =  -1.57640567266526E-12  3.91560888183332E-01
 cg2d: Sum(rhs),rhsMax =  -1.59872115546023E-12  3.97201274790481E-01
 cg2d: Sum(rhs),rhsMax =  -1.60704782814491E-12  4.02009125300117E-01
 cg2d: Sum(rhs),rhsMax =  -1.62769797640294E-12  4.05958784957273E-01
 cg2d: Sum(rhs),rhsMax =  -1.64224189802553E-12  4.09030272414663E-01
 cg2d: Sum(rhs),rhsMax =  -1.68987046578195E-12  4.11209455128634E-01
 cg2d: Sum(rhs),rhsMax =  -1.72839520473644E-12  4.12488158794272E-01
 cg2d: Sum(rhs),rhsMax =  -1.73605574360636E-12  4.12864209824180E-01
 cg2d: Sum(rhs),rhsMax =  -1.77236003651160E-12  4.12341410746379E-01
 cg2d: Sum(rhs),rhsMax =  -1.82021064887294E-12  4.10929449330999E-01
 cg2d: Sum(rhs),rhsMax =  -1.88071780371502E-12  4.08643743484078E-01
 cg2d: Sum(rhs),rhsMax =  -1.94000371323000E-12  4.05505225017739E-01
 cg2d: Sum(rhs),rhsMax =  -2.01938465949070E-12  4.01540071474370E-01
 cg2d: Sum(rhs),rhsMax =  -2.11497486191092E-12  3.96779373220044E-01
 cg2d: Sum(rhs),rhsMax =  -2.21722640247890E-12  3.91258756209780E-01
 cg2d: Sum(rhs),rhsMax =  -2.31847874232471E-12  3.85017965985066E-01
 cg2d: Sum(rhs),rhsMax =  -2.44726461318123E-12  3.78100412060615E-01
 cg2d: Sum(rhs),rhsMax =  -2.59159360638250E-12  3.70552688962596E-01
 cg2d: Sum(rhs),rhsMax =  -2.72293299019566E-12  3.62424090187334E-01
 cg2d: Sum(rhs),rhsMax =  -2.83173484660892E-12  3.53766102623739E-01
 cg2d: Sum(rhs),rhsMax =  -2.94131385913943E-12  3.44631896636854E-01
 cg2d: Sum(rhs),rhsMax =  -3.05810932132999E-12  3.35075801657460E-01
 cg2d: Sum(rhs),rhsMax =  -3.20804494080562E-12  3.25152784518109E-01
 cg2d: Sum(rhs),rhsMax =  -3.34787753075716E-12  3.14917949040712E-01
 cg2d: Sum(rhs),rhsMax =  -3.48576723041560E-12  3.04426060645998E-01
 cg2d: Sum(rhs),rhsMax =  -3.66290331399455E-12  2.93731098451262E-01
 cg2d: Sum(rhs),rhsMax =  -3.85064202745866E-12  2.82885837227118E-01
 cg2d: Sum(rhs),rhsMax =  -4.05236955103305E-12  2.71941462058493E-01
 cg2d: Sum(rhs),rhsMax =  -4.29623003839197E-12  2.60947218817200E-01
 cg2d: Sum(rhs),rhsMax =  -4.51982895555147E-12  2.49950103461415E-01
 cg2d: Sum(rhs),rhsMax =  -4.77440309509802E-12  2.38994593544107E-01
 cg2d: Sum(rhs),rhsMax =  -5.04452035698932E-12  2.28122419050525E-01
 cg2d: Sum(rhs),rhsMax =  -5.35577138194299E-12  2.17372375464555E-01
 cg2d: Sum(rhs),rhsMax =  -5.69816416273738E-12  2.06780180867143E-01
 cg2d: Sum(rhs),rhsMax =  -6.07264238894345E-12  1.96378375144365E-01
 cg2d: Sum(rhs),rhsMax =  -6.45544728783420E-12  1.86196258651187E-01
 cg2d: Sum(rhs),rhsMax =  -6.89792667429856E-12  1.76259864105076E-01
 cg2d: Sum(rhs),rhsMax =  -7.34773353272544E-12  1.66591968998802E-01
 cg2d: Sum(rhs),rhsMax =  -7.86598564062047E-12  1.57212142347574E-01
 cg2d: Sum(rhs),rhsMax =  -8.40344460684150E-12  1.48136820207213E-01
 cg2d: Sum(rhs),rhsMax =  -9.03743746505370E-12  1.39379403724385E-01
 cg2d: Sum(rhs),rhsMax =  -9.53531698044685E-12  1.33106190783104E-01
 cg2d: Sum(rhs),rhsMax =  -9.76457803503195E-12  1.29996453131047E-01
 cg2d: Sum(rhs),rhsMax =  -1.00214281317790E-11  1.26975877870927E-01
 cg2d: Sum(rhs),rhsMax =  -1.03654862471103E-11  1.24037168342735E-01
 cg2d: Sum(rhs),rhsMax =  -1.05132569316879E-11  1.21172247740997E-01
 cg2d: Sum(rhs),rhsMax =  -1.07911457547516E-11  1.18271434368581E-01
 cg2d: Sum(rhs),rhsMax =  -1.10290110377775E-11  1.15353003205418E-01
 cg2d: Sum(rhs),rhsMax =  -1.12456155498819E-11  1.12440905759354E-01
 cg2d: Sum(rhs),rhsMax =  -1.15494280805706E-11  1.09408563241741E-01
 cg2d: Sum(rhs),rhsMax =  -1.17945930799834E-11  1.06387680220263E-01
 cg2d: Sum(rhs),rhsMax =  -1.20269905146131E-11  1.03221114298354E-01
 cg2d: Sum(rhs),rhsMax =  -1.24537602452790E-11  1.00015594522038E-01
 cg2d: Sum(rhs),rhsMax =  -1.28398680576680E-11  9.66541967711956E-02
 cg2d: Sum(rhs),rhsMax =  -1.32891753157338E-11  9.32437641211094E-02
 cg2d: Sum(rhs),rhsMax =  -1.37595490556919E-11  8.96557193419154E-02
 cg2d: Sum(rhs),rhsMax =  -1.43082767856129E-11  8.60085195459178E-02
 cg2d: Sum(rhs),rhsMax =  -1.49121548442821E-11  8.22058519904158E-02
 cg2d: Sum(rhs),rhsMax =  -1.56386570360212E-11  7.82671215187821E-02
 cg2d: Sum(rhs),rhsMax =  -1.63998814528554E-11  7.42428590976638E-02
 cg2d: Sum(rhs),rhsMax =  -1.73173420048300E-11  7.00657138711040E-02
 cg2d: Sum(rhs),rhsMax =  -1.83714432555604E-11  6.57586898101485E-02
 cg2d: Sum(rhs),rhsMax =  -1.96496430238113E-11  6.13729962735146E-02
 cg2d: Sum(rhs),rhsMax =  -2.10695627611557E-11  5.68577945802394E-02
 cg2d: Sum(rhs),rhsMax =  -2.28653762590625E-11  5.22256667828543E-02
 cg2d: Sum(rhs),rhsMax =  -2.50180709482350E-11  4.75082670597785E-02
 cg2d: Sum(rhs),rhsMax =  -2.77366463130591E-11  4.27160832900308E-02
 cg2d: Sum(rhs),rhsMax =  -3.12772585608911E-11  3.78371653303040E-02
 cg2d: Sum(rhs),rhsMax =  -3.59265395211139E-11  3.28853711421722E-02
 cg2d: Sum(rhs),rhsMax =  -4.22395451948887E-11  2.78940017667753E-02
 cg2d: Sum(rhs),rhsMax =  -5.14314146826678E-11  2.28656717393649E-02
 cg2d: Sum(rhs),rhsMax =  -6.58633703132239E-11  1.78161883174861E-02
 cg2d: Sum(rhs),rhsMax =  -9.17784737097804E-11  1.27885184397512E-02
 cg2d: Sum(rhs),rhsMax =  -1.06717745751439E-10  1.09880960145691E-02
 cg2d: Sum(rhs),rhsMax =  -1.18047238650831E-10  9.93690712728963E-03
 cg2d: Sum(rhs),rhsMax =  -1.31871069619649E-10  8.89573862873993E-03
 cg2d: Sum(rhs),rhsMax =  -1.46602840978005E-10  7.99568325389782E-03
 cg2d: Sum(rhs),rhsMax =  -9.10594932790332E-11  1.28711923917271E-02
 cg2d: Sum(rhs),rhsMax =  -6.58980647827434E-11  1.77800768405425E-02
 cg2d: Sum(rhs),rhsMax =  -5.17197951133141E-11  2.26297146748043E-02
 cg2d: Sum(rhs),rhsMax =  -4.26064461489517E-11  2.74027400115828E-02
 cg2d: Sum(rhs),rhsMax =  -3.62973817669143E-11  3.20889727279352E-02
 cg2d: Sum(rhs),rhsMax =  -3.17244008840589E-11  3.66784419493055E-02
 cg2d: Sum(rhs),rhsMax =  -2.81737688734296E-11  4.11614024728308E-02
 cg2d: Sum(rhs),rhsMax =  -2.54124915555209E-11  4.55283540906988E-02
 cg2d: Sum(rhs),rhsMax =  -2.32010660683457E-11  4.97700645990836E-02
 cg2d: Sum(rhs),rhsMax =  -2.13024181627830E-11  5.38993460738546E-02
 cg2d: Sum(rhs),rhsMax =  -1.97584171246490E-11  5.79162280853249E-02
 cg2d: Sum(rhs),rhsMax =  -1.84046250462089E-11  6.17937615900423E-02
 cg2d: Sum(rhs),rhsMax =  -1.72374232942918E-11  6.55241816904052E-02
 cg2d: Sum(rhs),rhsMax =  -1.62801369607557E-11  6.91537989391507E-02
 cg2d: Sum(rhs),rhsMax =  -1.54354129304479E-11  7.26606014413617E-02
 cg2d: Sum(rhs),rhsMax =  -1.47068746070289E-11  7.60118306734045E-02
 cg2d: Sum(rhs),rhsMax =  -1.39738325077854E-11  7.92991959800757E-02
 cg2d: Sum(rhs),rhsMax =  -1.33640182253814E-11  8.24465849707559E-02
 cg2d: Sum(rhs),rhsMax =  -1.28409435862231E-11  8.55120987241779E-02
 cg2d: Sum(rhs),rhsMax =  -1.24279198043808E-11  8.84822131192311E-02
 cg2d: Sum(rhs),rhsMax =  -1.18957621531024E-11  9.13914515202782E-02
 cg2d: Sum(rhs),rhsMax =  -1.15376735942974E-11  9.42152416719077E-02
 cg2d: Sum(rhs),rhsMax =  -1.11393394508497E-11  9.70461691891147E-02
 cg2d: Sum(rhs),rhsMax =  -1.07285569317384E-11  9.98199721168652E-02
 cg2d: Sum(rhs),rhsMax =  -1.03178021682027E-11  1.02600142369408E-01
 cg2d: Sum(rhs),rhsMax =  -9.93874427202002E-12  1.05449835771386E-01
 cg2d: Sum(rhs),rhsMax =  -9.65397206620366E-12  1.08352239856041E-01
 cg2d: Sum(rhs),rhsMax =  -9.45793443563048E-12  1.11357500037509E-01
 cg2d: Sum(rhs),rhsMax =  -9.14152087361231E-12  1.14519788215117E-01
 cg2d: Sum(rhs),rhsMax =  -8.89432971717952E-12  1.17907599553226E-01
 cg2d: Sum(rhs),rhsMax =  -8.71758221165919E-12  1.21602175273940E-01
 cg2d: Sum(rhs),rhsMax =  -8.53206394424433E-12  1.25872655582426E-01
(PID.TID 0000.0001)      cg2d_init_res =   2.24551390606503E-01
(PID.TID 0000.0001)      cg2d_iters(min,last) =      -1      39
(PID.TID 0000.0001)      cg2d_last_res =   4.33580713255793E-14
(PID.TID 0000.0001) // =======================================================
(PID.TID 0000.0001) // Begin MONITOR dynamic field statistics
(PID.TID 0000.0001) // =======================================================
(PID.TID 0000.0001) %MON time_tsnumber                =                   480
(PID.TID 0000.0001) %MON time_secondsf                =   7.2000000000000E+03
(PID.TID 0000.0001) %MON dynstat_eta_max              =   3.0879082883430E-02
(PID.TID 0000.0001) %MON dynstat_eta_min              =  -2.9754329364478E-02
(PID.TID 0000.0001) %MON dynstat_eta_mean             =   2.3813716375335E-15
(PID.TID 0000.0001) %MON dynstat_eta_sd               =   2.2308129282574E-02
(PID.TID 0000.0001) %MON dynstat_eta_del2             =   6.4152316881162E-06
(PID.TID 0000.0001) %MON dynstat_uvel_max             =   1.0019354550502E+00
(PID.TID 0000.0001) %MON dynstat_uvel_min             =  -5.4972571875505E-02
(PID.TID 0000.0001) %MON dynstat_uvel_mean            =   4.5817272541930E-01
(PID.TID 0000.0001) %MON dynstat_uvel_sd              =   2.3811565242712E-02
(PID.TID 0000.0001) %MON dynstat_uvel_del2            =   3.3800340436888E-04
(PID.TID 0000.0001) %MON dynstat_vvel_max             =   0.0000000000000E+00
(PID.TID 0000.0001) %MON dynstat_vvel_min             =   0.0000000000000E+00
(PID.TID 0000.0001) %MON dynstat_vvel_mean            =   0.0000000000000E+00
(PID.TID 0000.0001) %MON dynstat_vvel_sd              =   0.0000000000000E+00
(PID.TID 0000.0001) %MON dynstat_vvel_del2            =   0.0000000000000E+00
(PID.TID 0000.0001) %MON dynstat_wvel_max             =   1.7576103999321E-02
(PID.TID 0000.0001) %MON dynstat_wvel_min             =  -7.2436622754569E-03
(PID.TID 0000.0001) %MON dynstat_wvel_mean            =   1.4777300243191E-21
(PID.TID 0000.0001) %MON dynstat_wvel_sd              =   1.0043877510398E-03
(PID.TID 0000.0001) %MON dynstat_wvel_del2            =   2.5952656647926E-05
(PID.TID 0000.0001) %MON dynstat_theta_max            =   1.5000000000001E+01
(PID.TID 0000.0001) %MON dynstat_theta_min            =   9.9999999999983E+00
(PID.TID 0000.0001) %MON dynstat_theta_mean           =   1.1004804678047E+01
(PID.TID 0000.0001) %MON dynstat_theta_sd             =   1.9414398887167E+00
(PID.TID 0000.0001) %MON dynstat_theta_del2           =   7.5104053717677E-05
(PID.TID 0000.0001) %MON dynstat_salt_max             =   3.5000000000000E+01
(PID.TID 0000.0001) %MON dynstat_salt_min             =   3.5000000000000E+01
(PID.TID 0000.0001) %MON dynstat_salt_mean            =   3.5000000000000E+01
(PID.TID 0000.0001) %MON dynstat_salt_sd              =   4.0500935938326E-13
(PID.TID 0000.0001) %MON dynstat_salt_del2            =   0.0000000000000E+00
(PID.TID 0000.0001) %MON dynstat_sst_max              =   1.5000000000001E+01
(PID.TID 0000.0001) %MON dynstat_sst_min              =   1.5000000000000E+01
(PID.TID 0000.0001) %MON dynstat_sst_mean             =   1.5000000000001E+01
(PID.TID 0000.0001) %MON dynstat_sst_sd               =   2.8146104012950E-13
(PID.TID 0000.0001) %MON dynstat_sst_del2             =   1.5699867249917E-15
(PID.TID 0000.0001) %MON dynstat_sss_max              =   3.5000000000000E+01
(PID.TID 0000.0001) %MON dynstat_sss_min              =   3.5000000000000E+01
(PID.TID 0000.0001) %MON dynstat_sss_mean             =   3.5000000000000E+01
(PID.TID 0000.0001) %MON dynstat_sss_sd               =   4.2632564145606E-14
(PID.TID 0000.0001) %MON dynstat_sss_del2             =   0.0000000000000E+00
(PID.TID 0000.0001) %MON forcing_qnet_max             =   0.0000000000000E+00
(PID.TID 0000.0001) %MON forcing_qnet_min             =   0.0000000000000E+00
(PID.TID 0000.0001) %MON forcing_qnet_mean            =   0.0000000000000E+00
(PID.TID 0000.0001) %MON forcing_qnet_sd              =   0.0000000000000E+00
(PID.TID 0000.0001) %MON forcing_qnet_del2            =   0.0000000000000E+00
(PID.TID 0000.0001) %MON forcing_qsw_max              =   0.0000000000000E+00
(PID.TID 0000.0001) %MON forcing_qsw_min              =   0.0000000000000E+00
(PID.TID 0000.0001) %MON forcing_qsw_mean             =   0.0000000000000E+00
(PID.TID 0000.0001) %MON forcing_qsw_sd               =   0.0000000000000E+00
(PID.TID 0000.0001) %MON forcing_qsw_del2             =   0.0000000000000E+00
(PID.TID 0000.0001) %MON forcing_empmr_max            =   0.0000000000000E+00
(PID.TID 0000.0001) %MON forcing_empmr_min            =   0.0000000000000E+00
(PID.TID 0000.0001) %MON forcing_empmr_mean           =   0.0000000000000E+00
(PID.TID 0000.0001) %MON forcing_empmr_sd             =   0.0000000000000E+00
(PID.TID 0000.0001) %MON forcing_empmr_del2           =   0.0000000000000E+00
(PID.TID 0000.0001) %MON forcing_fu_max               =   0.0000000000000E+00
(PID.TID 0000.0001) %MON forcing_fu_min               =   0.0000000000000E+00
(PID.TID 0000.0001) %MON forcing_fu_mean              =   0.0000000000000E+00
(PID.TID 0000.0001) %MON forcing_fu_sd                =   0.0000000000000E+00
(PID.TID 0000.0001) %MON forcing_fu_del2              =   0.0000000000000E+00
(PID.TID 0000.0001) %MON forcing_fv_max               =   0.0000000000000E+00
(PID.TID 0000.0001) %MON forcing_fv_min               =   0.0000000000000E+00
(PID.TID 0000.0001) %MON forcing_fv_mean              =   0.0000000000000E+00
(PID.TID 0000.0001) %MON forcing_fv_sd                =   0.0000000000000E+00
(PID.TID 0000.0001) %MON forcing_fv_del2              =   0.0000000000000E+00
(PID.TID 0000.0001) %MON advcfl_uvel_max              =   5.7206779666580E-02
(PID.TID 0000.0001) %MON advcfl_vvel_max              =   0.0000000000000E+00
(PID.TID 0000.0001) %MON advcfl_wvel_max              =   1.9234128854629E-01
(PID.TID 0000.0001) %MON advcfl_W_hf_max              =   1.9443384716612E-01
(PID.TID 0000.0001) %MON pe_b_mean                    =   1.2334171035171E-05
(PID.TID 0000.0001) %MON ke_max                       =   2.6641364660473E-01
(PID.TID 0000.0001) %MON ke_mean                      =   1.0526834304805E-01
(PID.TID 0000.0001) %MON ke_vol                       =   9.6656886657870E+10
(PID.TID 0000.0001) %MON vort_r_min                   =   0.0000000000000E+00
(PID.TID 0000.0001) %MON vort_r_max                   =   0.0000000000000E+00
(PID.TID 0000.0001) %MON vort_a_mean                  =   0.0000000000000E+00
(PID.TID 0000.0001) %MON vort_a_sd                    =   0.0000000000000E+00
(PID.TID 0000.0001) %MON vort_p_mean                  =   0.0000000000000E+00
(PID.TID 0000.0001) %MON vort_p_sd                    =   0.0000000000000E+00
(PID.TID 0000.0001) %MON surfExpan_theta_mean         =   3.2048196308421E-18
(PID.TID 0000.0001) %MON surfExpan_salt_mean          =   2.5698146952714E-19
(PID.TID 0000.0001) // =======================================================
(PID.TID 0000.0001) // End MONITOR dynamic field statistics
(PID.TID 0000.0001) // =======================================================
(PID.TID 0000.0001) // =======================================================
(PID.TID 0000.0001) // Begin OBCS MONITOR field statistics
(PID.TID 0000.0001) // =======================================================
(PID.TID 0000.0001) %MON obc_E_uVel_max               =   4.4822851314926E-01
(PID.TID 0000.0001) %MON obc_E_uVel_min               =   4.4822851314926E-01
(PID.TID 0000.0001) %MON obc_E_uVel_mean              =   4.4822851314926E-01
(PID.TID 0000.0001) %MON obc_E_uVel_sd                =  -1.9428902930940E-16
(PID.TID 0000.0001) %MON obc_E_uVel_Int               =   4.4822851314926E+05
(PID.TID 0000.0001) %MON obc_W_uVel_max               =   4.4822851314926E-01
(PID.TID 0000.0001) %MON obc_W_uVel_min               =   4.4822851314926E-01
(PID.TID 0000.0001) %MON obc_W_uVel_mean              =   4.4822851314926E-01
(PID.TID 0000.0001) %MON obc_W_uVel_sd                =  -1.9428902930940E-16
(PID.TID 0000.0001) %MON obc_W_uVel_Int               =   4.4822851314926E+05
(PID.TID 0000.0001) // =======================================================
(PID.TID 0000.0001) // End OBCS MONITOR field statistics
(PID.TID 0000.0001) // =======================================================
 cg2d: Sum(rhs),rhsMax =  -8.25345347621464E-12  1.30625181968031E-01
 cg2d: Sum(rhs),rhsMax =  -7.97040211608646E-12  1.35694363259515E-01
 cg2d: Sum(rhs),rhsMax =  -7.69267982647648E-12  1.41237438288467E-01
 cg2d: Sum(rhs),rhsMax =  -7.42417238797088E-12  1.47263760477586E-01
 cg2d: Sum(rhs),rhsMax =  -7.14972525628355E-12  1.54171396971270E-01
 cg2d: Sum(rhs),rhsMax =  -6.86900536450707E-12  1.61927617677702E-01
 cg2d: Sum(rhs),rhsMax =  -6.58800791697445E-12  1.69775253294709E-01
 cg2d: Sum(rhs),rhsMax =  -6.32266461408904E-12  1.77692214091190E-01
 cg2d: Sum(rhs),rhsMax =  -6.10850259263884E-12  1.85655084895452E-01
 cg2d: Sum(rhs),rhsMax =  -5.86136694735728E-12  1.93639237852910E-01
 cg2d: Sum(rhs),rhsMax =  -5.66141578062229E-12  2.01618959304053E-01
 cg2d: Sum(rhs),rhsMax =  -5.51636514245502E-12  2.09567589996620E-01
 cg2d: Sum(rhs),rhsMax =  -5.34838839882923E-12  2.17457677794093E-01
 cg2d: Sum(rhs),rhsMax =  -5.22193399632442E-12  2.25261141892146E-01
 cg2d: Sum(rhs),rhsMax =  -5.08126873910442E-12  2.32949447297971E-01
 cg2d: Sum(rhs),rhsMax =  -4.96769292368526E-12  2.40493788345101E-01
 cg2d: Sum(rhs),rhsMax =  -4.85256279603163E-12  2.47865279612259E-01
 cg2d: Sum(rhs),rhsMax =  -4.76885197997490E-12  2.55035152527259E-01
 cg2d: Sum(rhs),rhsMax =  -4.65827376672223E-12  2.61974955831875E-01
 cg2d: Sum(rhs),rhsMax =  -4.58777460465853E-12  2.68656757971401E-01
 cg2d: Sum(rhs),rhsMax =  -4.50706139076829E-12  2.75053349367436E-01
 cg2d: Sum(rhs),rhsMax =  -4.45399273019120E-12  2.81138442471880E-01
 cg2d: Sum(rhs),rhsMax =  -4.39359659765159E-12  2.86886867466573E-01
 cg2d: Sum(rhs),rhsMax =  -4.35296243495031E-12  2.92274761427026E-01
 cg2d: Sum(rhs),rhsMax =  -4.35318447955524E-12  2.97279748827028E-01
 cg2d: Sum(rhs),rhsMax =  -4.36617408894335E-12  3.01881111332059E-01
 cg2d: Sum(rhs),rhsMax =  -4.37994085444871E-12  3.06059944935872E-01
 cg2d: Sum(rhs),rhsMax =  -4.39859260126241E-12  3.09799302634583E-01
 cg2d: Sum(rhs),rhsMax =  -4.44200232152525E-12  3.13084321004125E-01
 cg2d: Sum(rhs),rhsMax =  -4.45943282301187E-12  3.15902329246453E-01
 cg2d: Sum(rhs),rhsMax =  -4.49951187420083E-12  3.18242939496463E-01
 cg2d: Sum(rhs),rhsMax =  -4.52782256132878E-12  3.20098117418206E-01
 cg2d: Sum(rhs),rhsMax =  -4.59854376799740E-12  3.21462232374675E-01
 cg2d: Sum(rhs),rhsMax =  -4.61297666731753E-12  3.22332086717262E-01
 cg2d: Sum(rhs),rhsMax =  -4.65660843218529E-12  3.22706924002578E-01
 cg2d: Sum(rhs),rhsMax =  -4.70090633086784E-12  3.22588416218419E-01
 cg2d: Sum(rhs),rhsMax =  -4.74698058638978E-12  3.21980630653806E-01
 cg2d: Sum(rhs),rhsMax =  -4.75386396914246E-12  3.20889978945908E-01
 cg2d: Sum(rhs),rhsMax =  -4.80826489734909E-12  3.19325141571652E-01
 cg2d: Sum(rhs),rhsMax =  -4.87587747954876E-12  3.17296975121747E-01
 cg2d: Sum(rhs),rhsMax =  -4.94282392793366E-12  3.14818403766441E-01
 cg2d: Sum(rhs),rhsMax =  -4.99911223528215E-12  3.11904295587105E-01
 cg2d: Sum(rhs),rhsMax =  -5.04341013396470E-12  3.08571325121695E-01
 cg2d: Sum(rhs),rhsMax =  -5.12412334785495E-12  3.04837819488342E-01
 cg2d: Sum(rhs),rhsMax =  -5.24202903307014E-12  3.00723599714646E-01
 cg2d: Sum(rhs),rhsMax =  -5.37614397444486E-12  2.96249815985403E-01
 cg2d: Sum(rhs),rhsMax =  -5.50937073739988E-12  2.95403550080766E-01
 cg2d: Sum(rhs),rhsMax =  -5.64659430324355E-12  2.94696279435878E-01
 cg2d: Sum(rhs),rhsMax =  -5.79591930005563E-12  2.93523003101035E-01
 cg2d: Sum(rhs),rhsMax =  -5.90771875863538E-12  2.91892126926020E-01
 cg2d: Sum(rhs),rhsMax =  -6.07469630153901E-12  2.89814099355749E-01
 cg2d: Sum(rhs),rhsMax =  -6.25288709699134E-12  2.87301315446473E-01
 cg2d: Sum(rhs),rhsMax =  -6.37867536568137E-12  2.84368005687632E-01
 cg2d: Sum(rhs),rhsMax =  -6.54498677477022E-12  2.81030115256996E-01
 cg2d: Sum(rhs),rhsMax =  -6.74704736525200E-12  2.77305173762276E-01
 cg2d: Sum(rhs),rhsMax =  -6.94966306724609E-12  2.73212153559861E-01
 cg2d: Sum(rhs),rhsMax =  -7.04081237756782E-12  2.68771320933366E-01
 cg2d: Sum(rhs),rhsMax =  -7.13584746847573E-12  2.64004080704509E-01
 cg2d: Sum(rhs),rhsMax =  -7.19924120318183E-12  2.58932808793748E-01
 cg2d: Sum(rhs),rhsMax =  -7.27062854366523E-12  2.53580682609586E-01
 cg2d: Sum(rhs),rhsMax =  -7.39375227709616E-12  2.47971509875313E-01
 cg2d: Sum(rhs),rhsMax =  -7.51110285079903E-12  2.42129560891654E-01
 cg2d: Sum(rhs),rhsMax =  -7.65809637925940E-12  2.36079408142542E-01
 cg2d: Sum(rhs),rhsMax =  -7.82096609697192E-12  2.29845766218924E-01
 cg2d: Sum(rhs),rhsMax =  -7.97417687437019E-12  2.23453333144208E-01
 cg2d: Sum(rhs),rhsMax =  -8.08375588690069E-12  2.16926636319175E-01
 cg2d: Sum(rhs),rhsMax =  -8.27182766727219E-12  2.10289885451913E-01
 cg2d: Sum(rhs),rhsMax =  -8.46567260737174E-12  2.03566834155244E-01
 cg2d: Sum(rhs),rhsMax =  -8.66040572589100E-12  1.96780651112560E-01
 cg2d: Sum(rhs),rhsMax =  -8.90076901072234E-12  1.89953801363680E-01
 cg2d: Sum(rhs),rhsMax =  -9.09616826305637E-12  1.83107938123761E-01
 cg2d: Sum(rhs),rhsMax =  -9.35029831339307E-12  1.76263804716558E-01
 cg2d: Sum(rhs),rhsMax =  -9.58555457231114E-12  1.69441147492418E-01
 cg2d: Sum(rhs),rhsMax =  -9.88031878534912E-12  1.62658642176885E-01
 cg2d: Sum(rhs),rhsMax =  -1.01484376457961E-11  1.55933833057101E-01
 cg2d: Sum(rhs),rhsMax =  -1.04533048883582E-11  1.49283081434330E-01
 cg2d: Sum(rhs),rhsMax =  -1.08372200102735E-11  1.42721524410678E-01
 cg2d: Sum(rhs),rhsMax =  -1.11987086270915E-11  1.36263044408071E-01
 cg2d: Sum(rhs),rhsMax =  -1.15696341396188E-11  1.29920250204117E-01
 cg2d: Sum(rhs),rhsMax =  -1.20227161559683E-11  1.23704470154378E-01
 cg2d: Sum(rhs),rhsMax =  -1.24538157564302E-11  1.17625748914360E-01
 cg2d: Sum(rhs),rhsMax =  -1.30009336629655E-11  1.11692858283164E-01
 cg2d: Sum(rhs),rhsMax =  -1.35499389486426E-11  1.05913311778630E-01
 cg2d: Sum(rhs),rhsMax =  -1.42544864800698E-11  1.00293387432403E-01
 cg2d: Sum(rhs),rhsMax =  -1.49822376727116E-11  9.48381599181056E-02
 cg2d: Sum(rhs),rhsMax =  -1.57704960201954E-11  8.95515385530597E-02
 cg2d: Sum(rhs),rhsMax =  -1.66625602204817E-11  8.44363105204777E-02
 cg2d: Sum(rhs),rhsMax =  -1.76590964073853E-11  7.94941873171363E-02
 cg2d: Sum(rhs),rhsMax =  -1.86846094152315E-11  7.47258550856045E-02
 cg2d: Sum(rhs),rhsMax =  -1.94377847151372E-11  7.14554144617268E-02
 cg2d: Sum(rhs),rhsMax =  -2.00892635859873E-11  6.87596197489029E-02
 cg2d: Sum(rhs),rhsMax =  -2.06846761940938E-11  6.64297004438647E-02
 cg2d: Sum(rhs),rhsMax =  -2.13268291915369E-11  6.41060256301776E-02
 cg2d: Sum(rhs),rhsMax =  -2.20896634317569E-11  6.17437810963304E-02
 cg2d: Sum(rhs),rhsMax =  -2.29153362951706E-11  5.93197483429554E-02
 cg2d: Sum(rhs),rhsMax =  -2.38173925026786E-11  5.68274766939535E-02
 cg2d: Sum(rhs),rhsMax =  -2.49041898214841E-11  5.42703512842756E-02
 cg2d: Sum(rhs),rhsMax =  -2.60685917297110E-11  5.16516683261374E-02
 cg2d: Sum(rhs),rhsMax =  -2.74318345816482E-11  4.89746288132032E-02
 cg2d: Sum(rhs),rhsMax =  -2.91010548991721E-11  4.62433502890365E-02
 cg2d: Sum(rhs),rhsMax =  -3.09545722387838E-11  4.34577925821876E-02
 cg2d: Sum(rhs),rhsMax =  -3.31424887534126E-11  4.06239094145499E-02
 cg2d: Sum(rhs),rhsMax =  -3.57260887540178E-11  3.77435057125081E-02
 cg2d: Sum(rhs),rhsMax =  -3.87591070349913E-11  3.48193205003246E-02
 cg2d: Sum(rhs),rhsMax =  -4.25239843337977E-11  3.18540231710207E-02
 cg2d: Sum(rhs),rhsMax =  -4.70312677691709E-11  2.88833983495593E-02
 cg2d: Sum(rhs),rhsMax =  -5.25447463317619E-11  2.58940144819695E-02
 cg2d: Sum(rhs),rhsMax =  -5.94667648456948E-11  2.29187204963406E-02
 cg2d: Sum(rhs),rhsMax =  -6.82452983014059E-11  1.99886187506443E-02
 cg2d: Sum(rhs),rhsMax =  -7.95841170742051E-11  1.71416848240260E-02
 cg2d: Sum(rhs),rhsMax =  -9.43805589237456E-11  1.44593801862522E-02
 cg2d: Sum(rhs),rhsMax =  -1.06591069304329E-10  1.28072445838334E-02
 cg2d: Sum(rhs),rhsMax =  -1.15885356866130E-10  1.17834501624114E-02
 cg2d: Sum(rhs),rhsMax =  -1.26767561725583E-10  1.07783362063127E-02
 cg2d: Sum(rhs),rhsMax =  -1.39702360790750E-10  9.78555380713093E-03
 cg2d: Sum(rhs),rhsMax =  -1.42413358883431E-10  9.60657609677330E-03
 cg2d: Sum(rhs),rhsMax =  -1.34164013232407E-10  1.02016443489915E-02
 cg2d: Sum(rhs),rhsMax =  -1.04923070232132E-10  1.30552371067979E-02
 cg2d: Sum(rhs),rhsMax =  -8.55574500135958E-11  1.60169382217055E-02
 cg2d: Sum(rhs),rhsMax =  -7.20613568816475E-11  1.90289624705360E-02
 cg2d: Sum(rhs),rhsMax =  -6.21791507171565E-11  2.20698627977734E-02
 cg2d: Sum(rhs),rhsMax =  -5.46716005800363E-11  2.51098401553340E-02
 cg2d: Sum(rhs),rhsMax =  -4.88565854439571E-11  2.81396329972580E-02
 cg2d: Sum(rhs),rhsMax =  -4.41672254325454E-11  3.11537360267386E-02
 cg2d: Sum(rhs),rhsMax =  -4.03718170005618E-11  3.41325551542514E-02
 cg2d: Sum(rhs),rhsMax =  -3.72701869366665E-11  3.70743342101371E-02
 cg2d: Sum(rhs),rhsMax =  -3.46586093158407E-11  3.99868243132807E-02
 cg2d: Sum(rhs),rhsMax =  -3.24096305348576E-11  4.28384713120234E-02
 cg2d: Sum(rhs),rhsMax =  -3.04635205949921E-11  4.56683763546131E-02
 cg2d: Sum(rhs),rhsMax =  -2.87351253902557E-11  4.84291258968749E-02
 cg2d: Sum(rhs),rhsMax =  -2.72928346589651E-11  5.11588141705333E-02
 cg2d: Sum(rhs),rhsMax =  -2.60664823059642E-11  5.38228910422388E-02
 cg2d: Sum(rhs),rhsMax =  -2.48301379457416E-11  5.64484397892307E-02
 cg2d: Sum(rhs),rhsMax =  -2.38460362567139E-11  5.90154793235701E-02
 cg2d: Sum(rhs),rhsMax =  -2.28824736936417E-11  6.15354773083405E-02
 cg2d: Sum(rhs),rhsMax =  -2.20823359597944E-11  6.40101571591212E-02
 cg2d: Sum(rhs),rhsMax =  -2.13030704188100E-11  6.64254321924709E-02
 cg2d: Sum(rhs),rhsMax =  -2.05760963822854E-11  6.88172356543228E-02
 cg2d: Sum(rhs),rhsMax =  -1.98923100214188E-11  7.15091096538885E-02
 cg2d: Sum(rhs),rhsMax =  -1.89448456922037E-11  7.56711360542171E-02
 cg2d: Sum(rhs),rhsMax =  -1.79745107686813E-11  7.99480803600175E-02
 cg2d: Sum(rhs),rhsMax =  -1.71458403031011E-11  8.43367880101408E-02
 cg2d: Sum(rhs),rhsMax =  -1.62594382402403E-11  8.88333338096074E-02
 cg2d: Sum(rhs),rhsMax =  -1.54809498553732E-11  9.34330161389923E-02
 cg2d: Sum(rhs),rhsMax =  -1.48170364866473E-11  9.81303553989690E-02
 cg2d: Sum(rhs),rhsMax =  -1.41548994747609E-11  1.02919096908090E-01
 cg2d: Sum(rhs),rhsMax =  -1.35385036514890E-11  1.07792218452877E-01
 cg2d: Sum(rhs),rhsMax =  -1.29874999643675E-11  1.12741942664456E-01
 cg2d: Sum(rhs),rhsMax =  -1.25033317033285E-11  1.17759754333750E-01
 cg2d: Sum(rhs),rhsMax =  -1.20548016013799E-11  1.22836422856270E-01
 cg2d: Sum(rhs),rhsMax =  -1.16113785253447E-11  1.27962029551683E-01
 cg2d: Sum(rhs),rhsMax =  -1.12252429573800E-11  1.33126000256448E-01
 cg2d: Sum(rhs),rhsMax =  -1.09068309939175E-11  1.38317142873792E-01
 cg2d: Sum(rhs),rhsMax =  -1.06492592522045E-11  1.43523690137420E-01
 cg2d: Sum(rhs),rhsMax =  -1.03632658010611E-11  1.48733347357123E-01
 cg2d: Sum(rhs),rhsMax =  -1.01274544306307E-11  1.53933344900649E-01
 cg2d: Sum(rhs),rhsMax =  -9.92228521567995E-12  1.59110495144775E-01
 cg2d: Sum(rhs),rhsMax =  -9.71955849138340E-12  1.64251253604691E-01
 cg2d: Sum(rhs),rhsMax =  -9.53037648798727E-12  1.69341783886447E-01
 cg2d: Sum(rhs),rhsMax =  -9.34707866662166E-12  1.74368026094376E-01
 cg2d: Sum(rhs),rhsMax =  -9.19497811224801E-12  1.79315768284156E-01
 cg2d: Sum(rhs),rhsMax =  -9.04742947227533E-12  1.84170720389814E-01
 cg2d: Sum(rhs),rhsMax =  -8.89732731934600E-12  1.88918590145240E-01
 cg2d: Sum(rhs),rhsMax =  -8.79385453345094E-12  1.93545160460482E-01
 cg2d: Sum(rhs),rhsMax =  -8.69859739793810E-12  1.98036367662535E-01
 cg2d: Sum(rhs),rhsMax =  -8.59257109908640E-12  2.02378379981240E-01
 cg2d: Sum(rhs),rhsMax =  -8.52029558018330E-12  2.06557675857187E-01
 cg2d: Sum(rhs),rhsMax =  -8.47011349947024E-12  2.10561121023510E-01
 cg2d: Sum(rhs),rhsMax =  -8.39339708846865E-12  2.14376044003633E-01
 cg2d: Sum(rhs),rhsMax =  -8.34887714518118E-12  2.17990309215174E-01
 cg2d: Sum(rhs),rhsMax =  -8.29691870762872E-12  2.21392387306686E-01
 cg2d: Sum(rhs),rhsMax =  -8.27093948885249E-12  2.24571422288472E-01
 cg2d: Sum(rhs),rhsMax =  -8.26916313201309E-12  2.27517294805910E-01
 cg2d: Sum(rhs),rhsMax =  -8.24273982402701E-12  2.30220681005951E-01
 cg2d: Sum(rhs),rhsMax =  -8.11417599777542E-12  2.35767722218550E-01
 cg2d: Sum(rhs),rhsMax =  -7.96884780385199E-12  2.42232456375710E-01
 cg2d: Sum(rhs),rhsMax =  -7.87081511077758E-12  2.48526825677403E-01
 cg2d: Sum(rhs),rhsMax =  -7.73403563414377E-12  2.54631226821387E-01
 cg2d: Sum(rhs),rhsMax =  -7.62490071082311E-12  2.60526452232311E-01
 cg2d: Sum(rhs),rhsMax =  -7.52575779472409E-12  2.66193794377122E-01
 cg2d: Sum(rhs),rhsMax =  -7.37232497272089E-12  2.71615148200601E-01
 cg2d: Sum(rhs),rhsMax =  -7.33302307764916E-12  2.76773110898543E-01
 cg2d: Sum(rhs),rhsMax =  -7.21911419532262E-12  2.81651078240478E-01
 cg2d: Sum(rhs),rhsMax =  -7.17004233763419E-12  2.86233336729539E-01
 cg2d: Sum(rhs),rhsMax =  -7.02315983147628E-12  2.90505150829430E-01
 cg2d: Sum(rhs),rhsMax =  -7.00295377242810E-12  2.94452844559537E-01
 cg2d: Sum(rhs),rhsMax =  -6.91269264052607E-12  2.98063876807448E-01
 cg2d: Sum(rhs),rhsMax =  -6.85773660080713E-12  3.01326909759411E-01
 cg2d: Sum(rhs),rhsMax =  -6.76914080344204E-12  3.04231869903717E-01
 cg2d: Sum(rhs),rhsMax =  -6.70907773780982E-12  3.06770001125278E-01
 cg2d: Sum(rhs),rhsMax =  -6.70996591622952E-12  3.08933909472341E-01
 cg2d: Sum(rhs),rhsMax =  -6.68531896508284E-12  3.10717599251657E-01
 cg2d: Sum(rhs),rhsMax =  -6.65945076860908E-12  3.12116500188840E-01
 cg2d: Sum(rhs),rhsMax =  -6.67865762693509E-12  3.13127485471256E-01
 cg2d: Sum(rhs),rhsMax =  -6.68698429961978E-12  3.13748880578773E-01
 cg2d: Sum(rhs),rhsMax =  -6.67654820318830E-12  3.13980462915510E-01
 cg2d: Sum(rhs),rhsMax =  -6.75937084082534E-12  3.13823452633159E-01
 cg2d: Sum(rhs),rhsMax =  -6.81765754961816E-12  3.13280496012030E-01
 cg2d: Sum(rhs),rhsMax =  -6.91269264052607E-12  3.12355636051401E-01
 cg2d: Sum(rhs),rhsMax =  -7.02771174587724E-12  3.11054275611621E-01
 cg2d: Sum(rhs),rhsMax =  -7.08988423525625E-12  3.09383133527579E-01
 cg2d: Sum(rhs),rhsMax =  -7.19535542259564E-12  3.07350193670867E-01
 cg2d: Sum(rhs),rhsMax =  -7.27096161057261E-12  3.04964646894102E-01
 cg2d: Sum(rhs),rhsMax =  -7.38809013967057E-12  3.02236825780905E-01
 cg2d: Sum(rhs),rhsMax =  -7.51299022994090E-12  2.99178131800261E-01
 cg2d: Sum(rhs),rhsMax =  -7.63999974395801E-12  2.95800961676681E-01
 cg2d: Sum(rhs),rhsMax =  -7.77888864433862E-12  2.92118629753643E-01
 cg2d: Sum(rhs),rhsMax =  -7.94486698652008E-12  2.88145284383145E-01
 cg2d: Sum(rhs),rhsMax =  -8.10806977113998E-12  2.83895820531909E-01
 cg2d: Sum(rhs),rhsMax =  -8.30324697886908E-12  2.79385789056783E-01
 cg2d: Sum(rhs),rhsMax =  -8.50652881467795E-12  2.74631301239861E-01
 cg2d: Sum(rhs),rhsMax =  -8.74933459016347E-12  2.69648930947314E-01
 cg2d: Sum(rhs),rhsMax =  -8.95616913965114E-12  2.64455618555514E-01
 cg2d: Sum(rhs),rhsMax =  -9.20230558421054E-12  2.59068576845924E-01
 cg2d: Sum(rhs),rhsMax =  -9.48030542957667E-12  2.53505198260156E-01
 cg2d: Sum(rhs),rhsMax =  -9.74875735693104E-12  2.47782963319424E-01
 cg2d: Sum(rhs),rhsMax =  -1.00887076470713E-11  2.41919350536976E-01
 cg2d: Sum(rhs),rhsMax =  -1.03905772874668E-11  2.35931748692036E-01
 cg2d: Sum(rhs),rhsMax =  -1.07450714992297E-11  2.29837371780844E-01
 cg2d: Sum(rhs),rhsMax =  -1.10851328116723E-11  2.23653176895036E-01
 cg2d: Sum(rhs),rhsMax =  -1.15056852934003E-11  2.17395786084638E-01
 cg2d: Sum(rhs),rhsMax =  -1.18746124044833E-11  2.11081413638242E-01
 cg2d: Sum(rhs),rhsMax =  -1.22852839012921E-11  2.04725798741385E-01
 cg2d: Sum(rhs),rhsMax =  -1.27051702492054E-11  1.98344143409697E-01
 cg2d: Sum(rhs),rhsMax =  -1.31709088080356E-11  1.91951055283372E-01
 cg2d: Sum(rhs),rhsMax =  -1.36669564554381E-11  1.85560495532404E-01
 cg2d: Sum(rhs),rhsMax =  -1.43038914046656E-11  1.79185733647861E-01
 cg2d: Sum(rhs),rhsMax =  -1.47950540707598E-11  1.72839307283596E-01
 cg2d: Sum(rhs),rhsMax =  -1.51996193409332E-11  1.66532989580437E-01
 cg2d: Sum(rhs),rhsMax =  -1.57580615223196E-11  1.60277761612752E-01
 cg2d: Sum(rhs),rhsMax =  -1.63924984697417E-11  1.54083789211300E-01
 cg2d: Sum(rhs),rhsMax =  -1.70184977221766E-11  1.47960404353685E-01
 cg2d: Sum(rhs),rhsMax =  -1.77514669630341E-11  1.41916091544880E-01
 cg2d: Sum(rhs),rhsMax =  -1.84539605818657E-11  1.35958479253971E-01
 cg2d: Sum(rhs),rhsMax =  -1.93240978774156E-11  1.30094336366484E-01
 cg2d: Sum(rhs),rhsMax =  -2.01272887245807E-11  1.24329573406130E-01
 cg2d: Sum(rhs),rhsMax =  -2.10779171894160E-11  1.18669248189658E-01
 cg2d: Sum(rhs),rhsMax =  -2.20733431532949E-11  1.13117575659418E-01
 cg2d: Sum(rhs),rhsMax =  -2.30989671834436E-11  1.07677941456579E-01
 cg2d: Sum(rhs),rhsMax =  -2.42696973629108E-11  1.02352919397623E-01
 cg2d: Sum(rhs),rhsMax =  -2.54655185827346E-11  9.71442918403420E-02
 cg2d: Sum(rhs),rhsMax =  -2.68742805786815E-11  9.20530732478957E-02
 cg2d: Sum(rhs),rhsMax =  -2.83885137619677E-11  8.70795375990669E-02
 cg2d: Sum(rhs),rhsMax =  -2.99841262929590E-11  8.22232474324786E-02
 cg2d: Sum(rhs),rhsMax =  -3.18215453987136E-11  7.74830855792849E-02
 cg2d: Sum(rhs),rhsMax =  -3.37923022897257E-11  7.28572886645110E-02
 cg2d: Sum(rhs),rhsMax =  -3.59434704222394E-11  6.83434821718635E-02
 cg2d: Sum(rhs),rhsMax =  -3.83431064676643E-11  6.39387168614976E-02
 cg2d: Sum(rhs),rhsMax =  -4.10451672649970E-11  5.96395061281436E-02
 cg2d: Sum(rhs),rhsMax =  -4.41141567719683E-11  5.54418629337805E-02
 cg2d: Sum(rhs),rhsMax =  -4.75417483158935E-11  5.13413357152864E-02
 cg2d: Sum(rhs),rhsMax =  -5.14627229719622E-11  4.73330450475439E-02
 cg2d: Sum(rhs),rhsMax =  -5.59914337117107E-11  4.34117210091224E-02
 cg2d: Sum(rhs),rhsMax =  -6.13608053257053E-11  3.95717407270873E-02
 cg2d: Sum(rhs),rhsMax =  -6.78168632362031E-11  3.58071658707366E-02
 cg2d: Sum(rhs),rhsMax =  -7.55058238155470E-11  3.21117797603833E-02
 cg2d: Sum(rhs),rhsMax =  -8.51125836476285E-11  2.84791244764018E-02
 cg2d: Sum(rhs),rhsMax =  -9.73142677551664E-11  2.49025379958556E-02
 cg2d: Sum(rhs),rhsMax =  -1.13230758103100E-10  2.13751908427890E-02
 cg2d: Sum(rhs),rhsMax =  -1.35165656445224E-10  1.78901233597943E-02
 cg2d: Sum(rhs),rhsMax =  -1.54906421023782E-10  1.56115447087664E-02
 cg2d: Sum(rhs),rhsMax =  -1.62393321012644E-10  1.48871546774702E-02
 cg2d: Sum(rhs),rhsMax =  -1.66916147570362E-10  1.44836372825443E-02
 cg2d: Sum(rhs),rhsMax =  -1.71687331018688E-10  1.40758028285830E-02
 cg2d: Sum(rhs),rhsMax =  -1.76424763687066E-10  1.36901643159494E-02
 cg2d: Sum(rhs),rhsMax =  -1.81406889510072E-10  1.33109247373381E-02
 cg2d: Sum(rhs),rhsMax =  -1.86545001668037E-10  1.29413241395822E-02
 cg2d: Sum(rhs),rhsMax =  -1.61675561827224E-10  1.49254498897703E-02
 cg2d: Sum(rhs),rhsMax =  -1.30694899347361E-10  1.84654217218856E-02
 cg2d: Sum(rhs),rhsMax =  -1.09395020819747E-10  2.20305220836725E-02
 cg2d: Sum(rhs),rhsMax =  -9.40939687277265E-11  2.55890108520654E-02
 cg2d: Sum(rhs),rhsMax =  -8.25979978857916E-11  2.91329158289790E-02
 cg2d: Sum(rhs),rhsMax =  -7.36050942418132E-11  3.26610851176654E-02
 cg2d: Sum(rhs),rhsMax =  -6.63719496030168E-11  3.61722916620967E-02
 cg2d: Sum(rhs),rhsMax =  -6.04467864651070E-11  3.96756222394358E-02
 cg2d: Sum(rhs),rhsMax =  -5.55108181643504E-11  4.31733832880636E-02
 cg2d: Sum(rhs),rhsMax =  -5.12262454677170E-11  4.66683233512142E-02
 cg2d: Sum(rhs),rhsMax =  -4.75552097700671E-11  5.01912698964778E-02
 cg2d: Sum(rhs),rhsMax =  -4.43188263865579E-11  5.37783025764027E-02
 cg2d: Sum(rhs),rhsMax =  -4.14973611029268E-11  5.73760571572439E-02
 cg2d: Sum(rhs),rhsMax =  -3.89609455808682E-11  6.09836610346342E-02
 cg2d: Sum(rhs),rhsMax =  -3.67422758884572E-11  6.46009940463849E-02
 cg2d: Sum(rhs),rhsMax =  -3.46820350216603E-11  6.83021533285435E-02
 cg2d: Sum(rhs),rhsMax =  -3.28243543457063E-11  7.20247915906297E-02
 cg2d: Sum(rhs),rhsMax =  -3.11141112874225E-11  7.58497382799823E-02
 cg2d: Sum(rhs),rhsMax =  -2.95760083091068E-11  7.97418714231324E-02
 cg2d: Sum(rhs),rhsMax =  -2.81055734241420E-11  8.37334955224972E-02
 cg2d: Sum(rhs),rhsMax =  -2.67601496517500E-11  8.78619825998210E-02
 cg2d: Sum(rhs),rhsMax =  -2.53209120337772E-11  9.24590681512325E-02
 cg2d: Sum(rhs),rhsMax =  -2.39810948876595E-11  9.71668336297973E-02
 cg2d: Sum(rhs),rhsMax =  -2.27874386027338E-11  1.01935999720810E-01
 cg2d: Sum(rhs),rhsMax =  -2.16761053550840E-11  1.06762262591301E-01
 cg2d: Sum(rhs),rhsMax =  -2.06527017709845E-11  1.11640745462441E-01
 cg2d: Sum(rhs),rhsMax =  -1.96580529632229E-11  1.16566011286622E-01
 cg2d: Sum(rhs),rhsMax =  -1.88397075717717E-11  1.21532078651051E-01
 cg2d: Sum(rhs),rhsMax =  -1.81661352627316E-11  1.26532440841409E-01
 cg2d: Sum(rhs),rhsMax =  -1.75222059084490E-11  1.31560087971669E-01
 cg2d: Sum(rhs),rhsMax =  -1.69309011255336E-11  1.36607532059876E-01
 cg2d: Sum(rhs),rhsMax =  -1.63515867512842E-11  1.41666834901032E-01
 cg2d: Sum(rhs),rhsMax =  -1.58222324131430E-11  1.46729638564423E-01
 cg2d: Sum(rhs),rhsMax =  -1.52529100461152E-11  1.51787198324600E-01
 cg2d: Sum(rhs),rhsMax =  -1.47688528073786E-11  1.56830417832203E-01
 cg2d: Sum(rhs),rhsMax =  -1.43506317940023E-11  1.61849886339265E-01
 cg2d: Sum(rhs),rhsMax =  -1.39354083827925E-11  1.66835917802569E-01
 cg2d: Sum(rhs),rhsMax =  -1.35549349522535E-11  1.71778591694964E-01
 cg2d: Sum(rhs),rhsMax =  -1.31681332504741E-11  1.76667795356468E-01
 cg2d: Sum(rhs),rhsMax =  -1.28859145576143E-11  1.81493267715576E-01
 cg2d: Sum(rhs),rhsMax =  -1.25973675935143E-11  1.86244644204684E-01
 cg2d: Sum(rhs),rhsMax =  -1.23122623207905E-11  1.90911502684004E-01
 cg2d: Sum(rhs),rhsMax =  -1.20524701330282E-11  1.95483410175447E-01
 cg2d: Sum(rhs),rhsMax =  -1.18682841332429E-11  1.99949970192897E-01
 cg2d: Sum(rhs),rhsMax =  -1.16205933764491E-11  2.04300870438683E-01
 cg2d: Sum(rhs),rhsMax =  -1.14289688823987E-11  2.08525930618884E-01
 cg2d: Sum(rhs),rhsMax =  -1.12561071574646E-11  2.12615150112266E-01
 cg2d: Sum(rhs),rhsMax =  -1.11242126621391E-11  2.16558755216141E-01
 cg2d: Sum(rhs),rhsMax =  -1.09754427768394E-11  2.20347245677817E-01
 cg2d: Sum(rhs),rhsMax =  -1.08288933375889E-11  2.23971440207892E-01
 cg2d: Sum(rhs),rhsMax =  -1.07047704034358E-11  2.27422520683674E-01
 cg2d: Sum(rhs),rhsMax =  -1.05698783059438E-11  2.30692074725734E-01
 cg2d: Sum(rhs),rhsMax =  -1.04753983265482E-11  2.33772136359533E-01
 cg2d: Sum(rhs),rhsMax =  -1.04002362277811E-11  2.36655224483054E-01
 cg2d: Sum(rhs),rhsMax =  -1.02937658397195E-11  2.39334378871094E-01
 cg2d: Sum(rhs),rhsMax =  -1.01839647825841E-11  2.41803193433855E-01
 cg2d: Sum(rhs),rhsMax =  -1.01397779062040E-11  2.44055846608796E-01
 cg2d: Sum(rhs),rhsMax =  -1.00732755470290E-11  2.46087128589284E-01
 cg2d: Sum(rhs),rhsMax =  -9.99877958207662E-12  2.47892465294910E-01
 cg2d: Sum(rhs),rhsMax =  -1.00003338943111E-11  2.49467938883966E-01
 cg2d: Sum(rhs),rhsMax =  -9.98856553025007E-12  2.50810304685523E-01
 cg2d: Sum(rhs),rhsMax =  -9.99333948925596E-12  2.51917004437929E-01
 cg2d: Sum(rhs),rhsMax =  -1.00043306971997E-11  2.52786175937834E-01
 cg2d: Sum(rhs),rhsMax =  -1.00339736519572E-11  2.53416659617506E-01
 cg2d: Sum(rhs),rhsMax =  -1.00814911974112E-11  2.53808000191395E-01
 cg2d: Sum(rhs),rhsMax =  -1.00970343197559E-11  2.53960444146073E-01
 cg2d: Sum(rhs),rhsMax =  -1.01457731105370E-11  2.53874934055715E-01
 cg2d: Sum(rhs),rhsMax =  -1.01604280544620E-11  2.53553099637236E-01
 cg2d: Sum(rhs),rhsMax =  -1.01901820315220E-11  2.52997245457732E-01
 cg2d: Sum(rhs),rhsMax =  -1.02250430344952E-11  2.52210335216163E-01
 cg2d: Sum(rhs),rhsMax =  -1.02700070669925E-11  2.51195972635083E-01
 cg2d: Sum(rhs),rhsMax =  -1.03034247800338E-11  2.49958378785056E-01
 cg2d: Sum(rhs),rhsMax =  -1.03613784219192E-11  2.48502366513418E-01
 cg2d: Sum(rhs),rhsMax =  -1.04561914682222E-11  2.46833311310446E-01
 cg2d: Sum(rhs),rhsMax =  -1.05992992160964E-11  2.44957121451189E-01
 cg2d: Sum(rhs),rhsMax =  -1.07072128940899E-11  2.42880206846223E-01
 cg2d: Sum(rhs),rhsMax =  -1.09097175737816E-11  2.40609444901982E-01
 cg2d: Sum(rhs),rhsMax =  -1.10842446332526E-11  2.38152144563952E-01
 cg2d: Sum(rhs),rhsMax =  -1.12649889416616E-11  2.35853603164302E-01
 cg2d: Sum(rhs),rhsMax =  -1.13835607606916E-11  2.35067035889247E-01
 cg2d: Sum(rhs),rhsMax =  -1.15266685085658E-11  2.34041274939366E-01
 cg2d: Sum(rhs),rhsMax =  -1.17038601032959E-11  2.32780454240672E-01
 cg2d: Sum(rhs),rhsMax =  -1.18649534641690E-11  2.31289360519235E-01
 cg2d: Sum(rhs),rhsMax =  -1.20461418617879E-11  2.29573405206643E-01
 cg2d: Sum(rhs),rhsMax =  -1.22450938278007E-11  2.27638592664245E-01
 cg2d: Sum(rhs),rhsMax =  -1.24419363700667E-11  2.25491485668943E-01
 cg2d: Sum(rhs),rhsMax =  -1.26910704167926E-11  2.23139168334275E-01
 cg2d: Sum(rhs),rhsMax =  -1.29108945756684E-11  2.20589206742060E-01
 cg2d: Sum(rhs),rhsMax =  -1.31507027489874E-11  2.17849605078788E-01
 cg2d: Sum(rhs),rhsMax =  -1.34378064231555E-11  2.14928759441772E-01
 cg2d: Sum(rhs),rhsMax =  -1.35345068486004E-11  2.11835411361116E-01
 cg2d: Sum(rhs),rhsMax =  -1.37847511183509E-11  2.08578599587033E-01
 cg2d: Sum(rhs),rhsMax =  -1.40470968190698E-11  2.05167613216301E-01
 cg2d: Sum(rhs),rhsMax =  -1.43358658277748E-11  2.01611945413061E-01
 cg2d: Sum(rhs),rhsMax =  -1.45657930161747E-11  1.97921246861696E-01
 cg2d: Sum(rhs),rhsMax =  -1.47670764505392E-11  1.94105279163207E-01
 cg2d: Sum(rhs),rhsMax =  -1.50055523562287E-11  1.90173868604377E-01
 cg2d: Sum(rhs),rhsMax =  -1.52522439123004E-11  1.86136861302009E-01
 cg2d: Sum(rhs),rhsMax =  -1.55016000036312E-11  1.82004080268341E-01
 cg2d: Sum(rhs),rhsMax =  -1.57703849978930E-11  1.77785284526264E-01
 cg2d: Sum(rhs),rhsMax =  -1.60285118511183E-11  1.73490130271505E-01
 cg2d: Sum(rhs),rhsMax =  -1.63286051346745E-11  1.69128133861783E-01
 cg2d: Sum(rhs),rhsMax =  -1.66362479347981E-11  1.64708636280165E-01
 cg2d: Sum(rhs),rhsMax =  -1.69465552701809E-11  1.60240770335064E-01
 cg2d: Sum(rhs),rhsMax =  -1.72885039617654E-11  1.55733430204274E-01
 cg2d: Sum(rhs),rhsMax =  -1.77150516478264E-11  1.51195242611721E-01
 cg2d: Sum(rhs),rhsMax =  -1.81322734604805E-11  1.46634539070805E-01
 cg2d: Sum(rhs),rhsMax =  -1.85914617034655E-11  1.42059329561167E-01
 cg2d: Sum(rhs),rhsMax =  -1.91622273604253E-11  1.37477278085874E-01
 cg2d: Sum(rhs),rhsMax =  -1.98288052644102E-11  1.32895680888249E-01
 cg2d: Sum(rhs),rhsMax =  -2.05107042461350E-11  1.28321445827219E-01
 cg2d: Sum(rhs),rhsMax =  -2.12079243055996E-11  1.23761076304857E-01
 cg2d: Sum(rhs),rhsMax =  -2.19068096996011E-11  1.19220654155250E-01
 cg2d: Sum(rhs),rhsMax =  -2.27089458348928E-11  1.14705826201315E-01
 cg2d: Sum(rhs),rhsMax =  -2.34621211347985E-11  1.10221794511352E-01
 cg2d: Sum(rhs),rhsMax =  -2.43834952229349E-11  1.05773306860948E-01
 cg2d: Sum(rhs),rhsMax =  -2.53320697751747E-11  1.01364651325941E-01
 cg2d: Sum(rhs),rhsMax =  -2.63522537125027E-11  9.69996532059221E-02
 cg2d: Sum(rhs),rhsMax =  -2.74303912917162E-11  9.26816748059672E-02
 cg2d: Sum(rhs),rhsMax =  -2.86628498713526E-11  8.84136172931727E-02
 cg2d: Sum(rhs),rhsMax =  -2.99422708849306E-11  8.41979247971507E-02
 cg2d: Sum(rhs),rhsMax =  -3.13998826939610E-11  8.00365907497336E-02
 cg2d: Sum(rhs),rhsMax =  -3.29938298904153E-11  7.59311658608062E-02
 cg2d: Sum(rhs),rhsMax =  -3.47796236255249E-11  7.18827679481537E-02
 cg2d: Sum(rhs),rhsMax =  -3.67573749215921E-11  6.78920938556183E-02
 cg2d: Sum(rhs),rhsMax =  -3.89389631649806E-11  6.39594322418170E-02
 cg2d: Sum(rhs),rhsMax =  -4.14057677033952E-11  6.00846766018573E-02
 cg2d: Sum(rhs),rhsMax =  -4.41146008611781E-11  5.62673434345429E-02
 cg2d: Sum(rhs),rhsMax =  -4.75152139856050E-11  5.25065899532073E-02
 cg2d: Sum(rhs),rhsMax =  -5.11025666227738E-11  4.88012320971664E-02
 cg2d: Sum(rhs),rhsMax =  -5.38558087015417E-11  4.63073977080884E-02
 cg2d: Sum(rhs),rhsMax =  -5.67831337505709E-11  4.38675171383989E-02
 cg2d: Sum(rhs),rhsMax =  -6.01109162445823E-11  4.14773528155191E-02
 cg2d: Sum(rhs),rhsMax =  -6.37411234905016E-11  3.91332915803467E-02
 cg2d: Sum(rhs),rhsMax =  -6.77974343332721E-11  3.68315390978697E-02
 cg2d: Sum(rhs),rhsMax =  -7.23142656866571E-11  3.45681312141103E-02
 cg2d: Sum(rhs),rhsMax =  -7.74841302231266E-11  3.23389454013280E-02
 cg2d: Sum(rhs),rhsMax =  -8.31654745070409E-11  3.01397124134213E-02
 cg2d: Sum(rhs),rhsMax =  -8.97111274156259E-11  2.79660281623227E-02
 cg2d: Sum(rhs),rhsMax =  -9.72462110837569E-11  2.58133658749010E-02
 cg2d: Sum(rhs),rhsMax =  -1.06134157018545E-10  2.36770885816590E-02
 cg2d: Sum(rhs),rhsMax =  -1.16666454275105E-10  2.15524619512111E-02
 cg2d: Sum(rhs),rhsMax =  -1.29434990503441E-10  1.94346674973240E-02
 cg2d: Sum(rhs),rhsMax =  -1.30204888537655E-10  1.93293200347811E-02
 cg2d: Sum(rhs),rhsMax =  -1.30351410221330E-10  1.93149860887696E-02
 cg2d: Sum(rhs),rhsMax =  -1.30423283284387E-10  1.93053527552102E-02
 cg2d: Sum(rhs),rhsMax =  -1.30501609518774E-10  1.93002836127133E-02
 cg2d: Sum(rhs),rhsMax =  -1.30546795595876E-10  1.93007463311122E-02
 cg2d: Sum(rhs),rhsMax =  -1.30564670186573E-10  1.93058631102573E-02
 cg2d: Sum(rhs),rhsMax =  -1.30533583941883E-10  1.93157400997707E-02
 cg2d: Sum(rhs),rhsMax =  -1.17042042724336E-10  2.15404164907498E-02
 cg2d: Sum(rhs),rhsMax =  -1.02944097690738E-10  2.45185388639653E-02
 cg2d: Sum(rhs),rhsMax =  -9.17144138412596E-11  2.75397854180633E-02
 cg2d: Sum(rhs),rhsMax =  -8.25641777169039E-11  3.05837024447760E-02
 cg2d: Sum(rhs),rhsMax =  -7.49929007781702E-11  3.36909814462463E-02
 cg2d: Sum(rhs),rhsMax =  -6.84003964579460E-11  3.69645684319767E-02
 cg2d: Sum(rhs),rhsMax =  -6.29034602184220E-11  4.02620277005751E-02
 cg2d: Sum(rhs),rhsMax =  -5.82434100948603E-11  4.35850294324291E-02
 cg2d: Sum(rhs),rhsMax =  -5.41255928965256E-11  4.69349733774626E-02
 cg2d: Sum(rhs),rhsMax =  -5.05653297011577E-11  5.03129771178305E-02
 cg2d: Sum(rhs),rhsMax =  -4.73818762003475E-11  5.37198656940462E-02
 cg2d: Sum(rhs),rhsMax =  -4.45976588991925E-11  5.71561625265315E-02
 cg2d: Sum(rhs),rhsMax =  -4.21245260895375E-11  6.06220816060846E-02
 cg2d: Sum(rhs),rhsMax =  -3.98348021235506E-11  6.41175209854841E-02
 cg2d: Sum(rhs),rhsMax =  -3.78628239872114E-11  6.76420575144560E-02
 cg2d: Sum(rhs),rhsMax =  -3.60156349188401E-11  7.11949429393348E-02
 cg2d: Sum(rhs),rhsMax =  -3.43334249919280E-11  7.47751014934041E-02
 cg2d: Sum(rhs),rhsMax =  -3.27569082969603E-11  7.83811285500240E-02
 cg2d: Sum(rhs),rhsMax =  -3.14558379344021E-11  8.20112909495490E-02
 cg2d: Sum(rhs),rhsMax =  -3.01965119575698E-11  8.56635289268291E-02
 cg2d: Sum(rhs),rhsMax =  -2.89928081542712E-11  8.93354596096150E-02
 cg2d: Sum(rhs),rhsMax =  -2.79720691054308E-11  9.30243821126242E-02
 cg2d: Sum(rhs),rhsMax =  -2.69586575285530E-11  9.67272842715699E-02
 cg2d: Sum(rhs),rhsMax =  -2.60285126785220E-11  1.00440851250428E-01
 cg2d: Sum(rhs),rhsMax =  -2.51937359863064E-11  1.04161475741295E-01
 cg2d: Sum(rhs),rhsMax =  -2.43716158365714E-11  1.07885269817039E-01
 cg2d: Sum(rhs),rhsMax =  -2.36082264848392E-11  1.11608078355439E-01
 cg2d: Sum(rhs),rhsMax =  -2.28372876165395E-11  1.15325493904564E-01
 cg2d: Sum(rhs),rhsMax =  -2.22040164032933E-11  1.19032872892938E-01
 cg2d: Sum(rhs),rhsMax =  -2.16073825498597E-11  1.22725352988759E-01
 cg2d: Sum(rhs),rhsMax =  -2.09534611883555E-11  1.26397871446121E-01
 cg2d: Sum(rhs),rhsMax =  -2.03788097508095E-11  1.30045184260761E-01
 cg2d: Sum(rhs),rhsMax =  -1.98214777924477E-11  1.33661885807635E-01
 cg2d: Sum(rhs),rhsMax =  -1.93569604789445E-11  1.37242429129144E-01
 cg2d: Sum(rhs),rhsMax =  -1.88515869581352E-11  1.40781146782908E-01
 cg2d: Sum(rhs),rhsMax =  -1.84314785656170E-11  1.44272272195247E-01
 cg2d: Sum(rhs),rhsMax =  -1.80224724033451E-11  1.47709961602168E-01
 cg2d: Sum(rhs),rhsMax =  -1.76686443253971E-11  1.51088316267503E-01
 cg2d: Sum(rhs),rhsMax =  -1.73410175108302E-11  1.54401405291396E-01
 cg2d: Sum(rhs),rhsMax =  -1.70419234279962E-11  1.57643288970031E-01
 cg2d: Sum(rhs),rhsMax =  -1.67394986760883E-11  1.60808042676926E-01
 cg2d: Sum(rhs),rhsMax =  -1.64696034588019E-11  1.63889781172425E-01
 cg2d: Sum(rhs),rhsMax =  -1.62725388719309E-11  1.66882683241052E-01
 cg2d: Sum(rhs),rhsMax =  -1.60227386913903E-11  1.69781016566134E-01
 cg2d: Sum(rhs),rhsMax =  -1.58291157958956E-11  1.72579162629847E-01
 cg2d: Sum(rhs),rhsMax =  -1.56292756514631E-11  1.75271641475236E-01
 cg2d: Sum(rhs),rhsMax =  -1.54530832574551E-11  1.77853136131409E-01
 cg2d: Sum(rhs),rhsMax =  -1.51099133205435E-11  1.82726055661741E-01
 cg2d: Sum(rhs),rhsMax =  -1.47704071196131E-11  1.87568613218511E-01
 cg2d: Sum(rhs),rhsMax =  -1.44522172007555E-11  1.92341506800799E-01
 cg2d: Sum(rhs),rhsMax =  -1.41742173553894E-11  1.97035018208231E-01
 cg2d: Sum(rhs),rhsMax =  -1.39078748517818E-11  2.01639439036330E-01
 cg2d: Sum(rhs),rhsMax =  -1.36456401733653E-11  2.06145107980926E-01
 cg2d: Sum(rhs),rhsMax =  -1.34051658662315E-11  2.10542448620049E-01
 cg2d: Sum(rhs),rhsMax =  -1.31749056109243E-11  2.14822007401457E-01
 cg2d: Sum(rhs),rhsMax =  -1.29735111542573E-11  2.18974491554741E-01
 cg2d: Sum(rhs),rhsMax =  -1.27801103033676E-11  2.22990806644326E-01
 cg2d: Sum(rhs),rhsMax =  -1.25918164783911E-11  2.26862093483719E-01
 cg2d: Sum(rhs),rhsMax =  -1.24259491585121E-11  2.30579764142073E-01
 cg2d: Sum(rhs),rhsMax =  -1.22852839012921E-11  2.34135536791303E-01
 cg2d: Sum(rhs),rhsMax =  -1.21931353902482E-11  2.37521469164114E-01
 cg2d: Sum(rhs),rhsMax =  -1.20741194820084E-11  2.40729990418138E-01
 cg2d: Sum(rhs),rhsMax =  -1.19518839269972E-11  2.43753931227625E-01
(PID.TID 0000.0001)      cg2d_init_res =   3.43601813101985E-02
(PID.TID 0000.0001)      cg2d_iters(min,last) =      -1      37
(PID.TID 0000.0001)      cg2d_last_res =   7.07704035706974E-14
(PID.TID 0000.0001) // =======================================================
(PID.TID 0000.0001) // Begin MONITOR dynamic field statistics
(PID.TID 0000.0001) // =======================================================
(PID.TID 0000.0001) %MON time_tsnumber                =                   960
(PID.TID 0000.0001) %MON time_secondsf                =   1.4400000000000E+04
(PID.TID 0000.0001) %MON dynstat_eta_max              =   4.2461580815993E-02
(PID.TID 0000.0001) %MON dynstat_eta_min              =  -4.1746821965159E-02
(PID.TID 0000.0001) %MON dynstat_eta_mean             =   6.4536359769229E-15
(PID.TID 0000.0001) %MON dynstat_eta_sd               =   2.7680969764491E-02
(PID.TID 0000.0001) %MON dynstat_eta_del2             =   1.2567524481632E-05
(PID.TID 0000.0001) %MON dynstat_uvel_max             =   1.0930710410986E+00
(PID.TID 0000.0001) %MON dynstat_uvel_min             =  -9.2572692608542E-02
(PID.TID 0000.0001) %MON dynstat_uvel_mean            =   4.5214086077637E-01
(PID.TID 0000.0001) %MON dynstat_uvel_sd              =   2.8782427749344E-02
(PID.TID 0000.0001) %MON dynstat_uvel_del2            =   4.2303355412987E-04
(PID.TID 0000.0001) %MON dynstat_vvel_max             =   0.0000000000000E+00
(PID.TID 0000.0001) %MON dynstat_vvel_min             =   0.0000000000000E+00
(PID.TID 0000.0001) %MON dynstat_vvel_mean            =   0.0000000000000E+00
(PID.TID 0000.0001) %MON dynstat_vvel_sd              =   0.0000000000000E+00
(PID.TID 0000.0001) %MON dynstat_vvel_del2            =   0.0000000000000E+00
(PID.TID 0000.0001) %MON dynstat_wvel_max             =   1.3032509717035E-02
(PID.TID 0000.0001) %MON dynstat_wvel_min             =  -1.3887326514145E-02
(PID.TID 0000.0001) %MON dynstat_wvel_mean            =   8.7376239613059E-21
(PID.TID 0000.0001) %MON dynstat_wvel_sd              =   1.2130015810128E-03
(PID.TID 0000.0001) %MON dynstat_wvel_del2            =   2.8229475127003E-05
(PID.TID 0000.0001) %MON dynstat_theta_max            =   1.5000000000002E+01
(PID.TID 0000.0001) %MON dynstat_theta_min            =   9.9999999999966E+00
(PID.TID 0000.0001) %MON dynstat_theta_mean           =   1.1004809168122E+01
(PID.TID 0000.0001) %MON dynstat_theta_sd             =   1.9407788917113E+00
(PID.TID 0000.0001) %MON dynstat_theta_del2           =   2.0134409638346E-04
(PID.TID 0000.0001) %MON dynstat_salt_max             =   3.5000000000000E+01
(PID.TID 0000.0001) %MON dynstat_salt_min             =   3.5000000000000E+01
(PID.TID 0000.0001) %MON dynstat_salt_mean            =   3.5000000000000E+01
(PID.TID 0000.0001) %MON dynstat_salt_sd              =   4.0500935938326E-13
(PID.TID 0000.0001) %MON dynstat_salt_del2            =   0.0000000000000E+00
(PID.TID 0000.0001) %MON dynstat_sst_max              =   1.5000000000002E+01
(PID.TID 0000.0001) %MON dynstat_sst_min              =   1.5000000000000E+01
(PID.TID 0000.0001) %MON dynstat_sst_mean             =   1.5000000000001E+01
(PID.TID 0000.0001) %MON dynstat_sst_sd               =   5.9881305208066E-13
(PID.TID 0000.0001) %MON dynstat_sst_del2             =   2.7274242865171E-15
(PID.TID 0000.0001) %MON dynstat_sss_max              =   3.5000000000000E+01
(PID.TID 0000.0001) %MON dynstat_sss_min              =   3.5000000000000E+01
(PID.TID 0000.0001) %MON dynstat_sss_mean             =   3.5000000000000E+01
(PID.TID 0000.0001) %MON dynstat_sss_sd               =   4.2632564145606E-14
(PID.TID 0000.0001) %MON dynstat_sss_del2             =   0.0000000000000E+00
(PID.TID 0000.0001) %MON forcing_qnet_max             =   0.0000000000000E+00
(PID.TID 0000.0001) %MON forcing_qnet_min             =   0.0000000000000E+00
(PID.TID 0000.0001) %MON forcing_qnet_mean            =   0.0000000000000E+00
(PID.TID 0000.0001) %MON forcing_qnet_sd              =   0.0000000000000E+00
(PID.TID 0000.0001) %MON forcing_qnet_del2            =   0.0000000000000E+00
(PID.TID 0000.0001) %MON forcing_qsw_max              =   0.0000000000000E+00
(PID.TID 0000.0001) %MON forcing_qsw_min              =   0.0000000000000E+00
(PID.TID 0000.0001) %MON forcing_qsw_mean             =   0.0000000000000E+00
(PID.TID 0000.0001) %MON forcing_qsw_sd               =   0.0000000000000E+00
(PID.TID 0000.0001) %MON forcing_qsw_del2             =   0.0000000000000E+00
(PID.TID 0000.0001) %MON forcing_empmr_max            =   0.0000000000000E+00
(PID.TID 0000.0001) %MON forcing_empmr_min            =   0.0000000000000E+00
(PID.TID 0000.0001) %MON forcing_empmr_mean           =   0.0000000000000E+00
(PID.TID 0000.0001) %MON forcing_empmr_sd             =   0.0000000000000E+00
(PID.TID 0000.0001) %MON forcing_empmr_del2           =   0.0000000000000E+00
(PID.TID 0000.0001) %MON forcing_fu_max               =   0.0000000000000E+00
(PID.TID 0000.0001) %MON forcing_fu_min               =   0.0000000000000E+00
(PID.TID 0000.0001) %MON forcing_fu_mean              =   0.0000000000000E+00
(PID.TID 0000.0001) %MON forcing_fu_sd                =   0.0000000000000E+00
(PID.TID 0000.0001) %MON forcing_fu_del2              =   0.0000000000000E+00
(PID.TID 0000.0001) %MON forcing_fv_max               =   0.0000000000000E+00
(PID.TID 0000.0001) %MON forcing_fv_min               =   0.0000000000000E+00
(PID.TID 0000.0001) %MON forcing_fv_mean              =   0.0000000000000E+00
(PID.TID 0000.0001) %MON forcing_fv_sd                =   0.0000000000000E+00
(PID.TID 0000.0001) %MON forcing_fv_del2              =   0.0000000000000E+00
(PID.TID 0000.0001) %MON advcfl_uvel_max              =   5.9133371139559E-02
(PID.TID 0000.0001) %MON advcfl_vvel_max              =   0.0000000000000E+00
(PID.TID 0000.0001) %MON advcfl_wvel_max              =   1.8772386630403E-01
(PID.TID 0000.0001) %MON advcfl_W_hf_max              =   1.8976619012099E-01
(PID.TID 0000.0001) %MON pe_b_mean                    =   1.8990931308833E-05
(PID.TID 0000.0001) %MON ke_max                       =   3.0181464547135E-01
(PID.TID 0000.0001) %MON ke_mean                      =   1.0262338758716E-01
(PID.TID 0000.0001) %MON ke_vol                       =   9.6656886657870E+10
(PID.TID 0000.0001) %MON vort_r_min                   =   0.0000000000000E+00
(PID.TID 0000.0001) %MON vort_r_max                   =   0.0000000000000E+00
(PID.TID 0000.0001) %MON vort_a_mean                  =   0.0000000000000E+00
(PID.TID 0000.0001) %MON vort_a_sd                    =   0.0000000000000E+00
(PID.TID 0000.0001) %MON vort_p_mean                  =   0.0000000000000E+00
(PID.TID 0000.0001) %MON vort_p_sd                    =   0.0000000000000E+00
(PID.TID 0000.0001) %MON surfExpan_theta_mean         =  -4.9427033731334E-18
(PID.TID 0000.0001) %MON surfExpan_salt_mean          =   3.8942934648452E-19
(PID.TID 0000.0001) // =======================================================
(PID.TID 0000.0001) // End MONITOR dynamic field statistics
(PID.TID 0000.0001) // =======================================================
(PID.TID 0000.0001) // =======================================================
(PID.TID 0000.0001) // Begin OBCS MONITOR field statistics
(PID.TID 0000.0001) // =======================================================
(PID.TID 0000.0001) %MON obc_E_uVel_max               =   4.4822851314926E-01
(PID.TID 0000.0001) %MON obc_E_uVel_min               =   4.4822851314926E-01
(PID.TID 0000.0001) %MON obc_E_uVel_mean              =   4.4822851314926E-01
(PID.TID 0000.0001) %MON obc_E_uVel_sd                =  -1.9428902930940E-16
(PID.TID 0000.0001) %MON obc_E_uVel_Int               =   4.4822851314926E+05
(PID.TID 0000.0001) %MON obc_W_uVel_max               =   4.4822851314926E-01
(PID.TID 0000.0001) %MON obc_W_uVel_min               =   4.4822851314926E-01
(PID.TID 0000.0001) %MON obc_W_uVel_mean              =   4.4822851314926E-01
(PID.TID 0000.0001) %MON obc_W_uVel_sd                =  -1.9428902930940E-16
(PID.TID 0000.0001) %MON obc_W_uVel_Int               =   4.4822851314926E+05
(PID.TID 0000.0001) // =======================================================
(PID.TID 0000.0001) // End OBCS MONITOR field statistics
(PID.TID 0000.0001) // =======================================================
 cg2d: Sum(rhs),rhsMax =  -1.18723919584340E-11  2.46586551946943E-01
 cg2d: Sum(rhs),rhsMax =  -1.17705845070759E-11  2.49221568712032E-01
 cg2d: Sum(rhs),rhsMax =  -1.16520126880459E-11  2.51653177366135E-01
 cg2d: Sum(rhs),rhsMax =  -1.15767395669764E-11  2.53876075109937E-01
 cg2d: Sum(rhs),rhsMax =  -1.14895870595433E-11  2.55885479797391E-01
 cg2d: Sum(rhs),rhsMax =  -1.14440679155337E-11  2.57677146805680E-01
 cg2d: Sum(rhs),rhsMax =  -1.13797860024079E-11  2.59247383420857E-01
 cg2d: Sum(rhs),rhsMax =  -1.13021814129866E-11  2.60593060701231E-01
 cg2d: Sum(rhs),rhsMax =  -1.12810871755187E-11  2.61711622746862E-01
 cg2d: Sum(rhs),rhsMax =  -1.12517772876686E-11  2.62601093409942E-01
 cg2d: Sum(rhs),rhsMax =  -1.12247988681702E-11  2.63260080508172E-01
 cg2d: Sum(rhs),rhsMax =  -1.12229114890283E-11  2.63687778174373E-01
 cg2d: Sum(rhs),rhsMax =  -1.12173603739052E-11  2.63883965166954E-01
 cg2d: Sum(rhs),rhsMax =  -1.12901910043206E-11  2.63849000338330E-01
 cg2d: Sum(rhs),rhsMax =  -1.12735376589512E-11  2.63583816081871E-01
 cg2d: Sum(rhs),rhsMax =  -1.13055120820604E-11  2.63089909603029E-01
 cg2d: Sum(rhs),rhsMax =  -1.13776765786611E-11  2.62369331819652E-01
 cg2d: Sum(rhs),rhsMax =  -1.14822595875808E-11  2.61424673853488E-01
 cg2d: Sum(rhs),rhsMax =  -1.15624176899587E-11  2.60259050795600E-01
 cg2d: Sum(rhs),rhsMax =  -1.16355813872815E-11  2.58876083485295E-01
 cg2d: Sum(rhs),rhsMax =  -1.17498233365154E-11  2.57279876877830E-01
 cg2d: Sum(rhs),rhsMax =  -1.18574039476016E-11  2.55474997432766E-01
 cg2d: Sum(rhs),rhsMax =  -1.20072840559260E-11  2.53466450794198E-01
 cg2d: Sum(rhs),rhsMax =  -1.21541665620839E-11  2.51259656905059E-01
 cg2d: Sum(rhs),rhsMax =  -1.23334675805609E-11  2.48860423222734E-01
 cg2d: Sum(rhs),rhsMax =  -1.25067733947049E-11  2.46274915465582E-01
 cg2d: Sum(rhs),rhsMax =  -1.26866295246941E-11  2.43509628361367E-01
 cg2d: Sum(rhs),rhsMax =  -1.28946853195089E-11  2.40571354062409E-01
 cg2d: Sum(rhs),rhsMax =  -1.31132882330576E-11  2.37467148919150E-01
 cg2d: Sum(rhs),rhsMax =  -1.33447697336919E-11  2.34204300608993E-01
 cg2d: Sum(rhs),rhsMax =  -1.35952360480474E-11  2.30790295140556E-01
 cg2d: Sum(rhs),rhsMax =  -1.38291600393359E-11  2.27232784492102E-01
 cg2d: Sum(rhs),rhsMax =  -1.40897293832154E-11  2.23539554522777E-01
 cg2d: Sum(rhs),rhsMax =  -1.43771661242909E-11  2.19718492821251E-01
 cg2d: Sum(rhs),rhsMax =  -1.46487266761142E-11  2.15777556667404E-01
 cg2d: Sum(rhs),rhsMax =  -1.49872336763224E-11  2.11724741072109E-01
 cg2d: Sum(rhs),rhsMax =  -1.54064538904208E-11  2.07568046781767E-01
 cg2d: Sum(rhs),rhsMax =  -1.58197899224888E-11  2.03315449317845E-01
 cg2d: Sum(rhs),rhsMax =  -1.60726987274984E-11  1.98974869129958E-01
 cg2d: Sum(rhs),rhsMax =  -1.64201985342061E-11  1.94554142838167E-01
 cg2d: Sum(rhs),rhsMax =  -1.68062230798682E-11  1.90060995499464E-01
 cg2d: Sum(rhs),rhsMax =  -1.72278857846209E-11  1.85503013594116E-01
 cg2d: Sum(rhs),rhsMax =  -1.76028081000368E-11  1.80887619950719E-01
 cg2d: Sum(rhs),rhsMax =  -1.80607750976947E-11  1.76222048668058E-01
 cg2d: Sum(rhs),rhsMax =  -1.85109705341802E-11  1.71513323240782E-01
 cg2d: Sum(rhs),rhsMax =  -1.90081284046073E-11  1.66768235447945E-01
 cg2d: Sum(rhs),rhsMax =  -1.95641280953396E-11  1.61993326255486E-01
 cg2d: Sum(rhs),rhsMax =  -2.00952587903203E-11  1.57194868641667E-01
 cg2d: Sum(rhs),rhsMax =  -2.06749062314771E-11  1.52378851503463E-01
 cg2d: Sum(rhs),rhsMax =  -2.12929673892859E-11  1.47550965174840E-01
 cg2d: Sum(rhs),rhsMax =  -2.19697593450974E-11  1.42716588440534E-01
 cg2d: Sum(rhs),rhsMax =  -2.27192709090218E-11  1.37880777396915E-01
 cg2d: Sum(rhs),rhsMax =  -2.34903207996240E-11  1.33048256286609E-01
 cg2d: Sum(rhs),rhsMax =  -2.43576270264612E-11  1.28223410402492E-01
 cg2d: Sum(rhs),rhsMax =  -2.52551313195681E-11  1.23410280943015E-01
 cg2d: Sum(rhs),rhsMax =  -2.62123656113999E-11  1.18612561647823E-01
 cg2d: Sum(rhs),rhsMax =  -2.72598610351338E-11  1.13833597100065E-01
 cg2d: Sum(rhs),rhsMax =  -2.83828516245421E-11  1.09076383040769E-01
 cg2d: Sum(rhs),rhsMax =  -2.96248581221903E-11  1.04343568285632E-01
 cg2d: Sum(rhs),rhsMax =  -3.09564596179257E-11  9.96374579773290E-02
 cg2d: Sum(rhs),rhsMax =  -3.24041904420369E-11  9.49600189512438E-02
 cg2d: Sum(rhs),rhsMax =  -3.40630856854318E-11  9.03128869495411E-02
 cg2d: Sum(rhs),rhsMax =  -3.58429952385109E-11  8.56973746720195E-02
 cg2d: Sum(rhs),rhsMax =  -3.78528319799898E-11  8.11144815921672E-02
 cg2d: Sum(rhs),rhsMax =  -4.00575128622904E-11  7.65649051197188E-02
 cg2d: Sum(rhs),rhsMax =  -4.25122159697366E-11  7.20490528568445E-02
 cg2d: Sum(rhs),rhsMax =  -4.53015402968049E-11  6.75670559227791E-02
 cg2d: Sum(rhs),rhsMax =  -4.84488005270123E-11  6.31187833330874E-02
 cg2d: Sum(rhs),rhsMax =  -5.20202769749289E-11  5.87038569650495E-02
 cg2d: Sum(rhs),rhsMax =  -5.61583002323118E-11  5.43216677845612E-02
 cg2d: Sum(rhs),rhsMax =  -6.09948758167889E-11  4.99713920184590E-02
 cg2d: Sum(rhs),rhsMax =  -6.66691146733456E-11  4.56520076399810E-02
 cg2d: Sum(rhs),rhsMax =  -7.35158600662089E-11  4.13623115632935E-02
 cg2d: Sum(rhs),rhsMax =  -8.18335399443981E-11  3.71009373803118E-02
 cg2d: Sum(rhs),rhsMax =  -9.23509047012772E-11  3.28663735567520E-02
 cg2d: Sum(rhs),rhsMax =  -1.05858877219589E-10  2.86569824248374E-02
 cg2d: Sum(rhs),rhsMax =  -1.23922427874845E-10  2.44710192378732E-02
 cg2d: Sum(rhs),rhsMax =  -1.35604305562254E-10  2.23517668164695E-02
 cg2d: Sum(rhs),rhsMax =  -1.37287070600678E-10  2.20714429238867E-02
 cg2d: Sum(rhs),rhsMax =  -1.38981048891651E-10  2.17933279418906E-02
 cg2d: Sum(rhs),rhsMax =  -1.40655376235088E-10  2.15168092376121E-02
 cg2d: Sum(rhs),rhsMax =  -1.42401201941311E-10  2.12434214072252E-02
 cg2d: Sum(rhs),rhsMax =  -1.44190215323192E-10  2.09745430661371E-02
 cg2d: Sum(rhs),rhsMax =  -1.45905676429692E-10  2.07106983843317E-02
 cg2d: Sum(rhs),rhsMax =  -1.47649392712168E-10  2.04486183833624E-02
 cg2d: Sum(rhs),rhsMax =  -1.49441126140459E-10  2.01886238954287E-02
 cg2d: Sum(rhs),rhsMax =  -1.49560600015697E-10  2.01649145681232E-02
 cg2d: Sum(rhs),rhsMax =  -1.26618281831581E-10  2.38046159114083E-02
 cg2d: Sum(rhs),rhsMax =  -1.09709907825106E-10  2.74575111196506E-02
 cg2d: Sum(rhs),rhsMax =  -9.67835256382443E-11  3.11050233968954E-02
 cg2d: Sum(rhs),rhsMax =  -8.64788796128835E-11  3.47848072828094E-02
 cg2d: Sum(rhs),rhsMax =  -7.81142373007526E-11  3.84860829087739E-02
 cg2d: Sum(rhs),rhsMax =  -7.11733449954011E-11  4.21844684971473E-02
 cg2d: Sum(rhs),rhsMax =  -6.52762843778021E-11  4.59464517057223E-02
 cg2d: Sum(rhs),rhsMax =  -6.02525251913733E-11  4.97116011383834E-02
 cg2d: Sum(rhs),rhsMax =  -5.59214341500081E-11  5.35296397516350E-02
 cg2d: Sum(rhs),rhsMax =  -5.20891663136069E-11  5.73713353716606E-02
 cg2d: Sum(rhs),rhsMax =  -4.87205831234405E-11  6.12902905572715E-02
 cg2d: Sum(rhs),rhsMax =  -4.56565341089288E-11  6.53346779254251E-02
 cg2d: Sum(rhs),rhsMax =  -4.29214996877647E-11  6.94312891506405E-02
 cg2d: Sum(rhs),rhsMax =  -4.04909994422553E-11  7.35315949933032E-02
 cg2d: Sum(rhs),rhsMax =  -3.82851528257788E-11  7.76345749835053E-02
 cg2d: Sum(rhs),rhsMax =  -3.63328256369755E-11  8.17389665764287E-02
 cg2d: Sum(rhs),rhsMax =  -3.45665718270993E-11  8.58432645593012E-02
 cg2d: Sum(rhs),rhsMax =  -3.28982396879951E-11  8.99457217442559E-02
 cg2d: Sum(rhs),rhsMax =  -3.13666870255247E-11  9.40443509570930E-02
 cg2d: Sum(rhs),rhsMax =  -2.99803515346753E-11  9.81369283249328E-02
 cg2d: Sum(rhs),rhsMax =  -2.87145862643001E-11  1.02220997862108E-01
 cg2d: Sum(rhs),rhsMax =  -2.75225398027601E-11  1.06293877344107E-01
 cg2d: Sum(rhs),rhsMax =  -2.64578359221446E-11  1.10352665443771E-01
 cg2d: Sum(rhs),rhsMax =  -2.54821719281040E-11  1.14394250087234E-01
 cg2d: Sum(rhs),rhsMax =  -2.44722020426025E-11  1.18415317976371E-01
 cg2d: Sum(rhs),rhsMax =  -2.35225172673381E-11  1.22412365211177E-01
 cg2d: Sum(rhs),rhsMax =  -2.26947349801776E-11  1.26381708930462E-01
 cg2d: Sum(rhs),rhsMax =  -2.19915197163800E-11  1.30319499889855E-01
 cg2d: Sum(rhs),rhsMax =  -2.14385176278142E-11  1.34221735901903E-01
 cg2d: Sum(rhs),rhsMax =  -2.08519868039048E-11  1.38084276063671E-01
 cg2d: Sum(rhs),rhsMax =  -2.03170813506404E-11  1.41902855692047E-01
 cg2d: Sum(rhs),rhsMax =  -1.97947214175542E-11  1.45673101883344E-01
 cg2d: Sum(rhs),rhsMax =  -1.93407512227850E-11  1.49390549614438E-01
 cg2d: Sum(rhs),rhsMax =  -1.88964399683300E-11  1.53050658304190E-01
 cg2d: Sum(rhs),rhsMax =  -1.84871007391507E-11  1.56648828760531E-01
 cg2d: Sum(rhs),rhsMax =  -1.81340498173199E-11  1.60180420442740E-01
 cg2d: Sum(rhs),rhsMax =  -1.78013159768398E-11  1.63640768962640E-01
 cg2d: Sum(rhs),rhsMax =  -1.74158465426899E-11  1.67025203773063E-01
 cg2d: Sum(rhs),rhsMax =  -1.71223035749790E-11  1.70329065954828E-01
 cg2d: Sum(rhs),rhsMax =  -1.68154379309726E-11  1.73547726005856E-01
 cg2d: Sum(rhs),rhsMax =  -1.65140123797869E-11  1.76676601554358E-01
 cg2d: Sum(rhs),rhsMax =  -1.62181379437243E-11  1.79711174955080E-01
 cg2d: Sum(rhs),rhsMax =  -1.59652291387147E-11  1.82647010629276E-01
 cg2d: Sum(rhs),rhsMax =  -1.57157620250814E-11  1.85479772103132E-01
 cg2d: Sum(rhs),rhsMax =  -1.54840584798421E-11  1.88205238643214E-01
 cg2d: Sum(rhs),rhsMax =  -1.52537982245349E-11  1.90819321427849E-01
 cg2d: Sum(rhs),rhsMax =  -1.50953693989209E-11  1.93318079218706E-01
 cg2d: Sum(rhs),rhsMax =  -1.49256162984557E-11  1.95697733495480E-01
 cg2d: Sum(rhs),rhsMax =  -1.47514223058920E-11  1.97954683012345E-01
 cg2d: Sum(rhs),rhsMax =  -1.46099798925547E-11  2.00085517747253E-01
 cg2d: Sum(rhs),rhsMax =  -1.45110590210606E-11  2.02087032216718E-01
 cg2d: Sum(rhs),rhsMax =  -1.43750567005441E-11  2.03956238097650E-01
 cg2d: Sum(rhs),rhsMax =  -1.42899025945553E-11  2.05690376122350E-01
 cg2d: Sum(rhs),rhsMax =  -1.41924250129932E-11  2.07286927213617E-01
 cg2d: Sum(rhs),rhsMax =  -1.41102685091710E-11  2.08743622842124E-01
 cg2d: Sum(rhs),rhsMax =  -1.40293332506758E-11  2.10058454477792E-01
 cg2d: Sum(rhs),rhsMax =  -1.39728228987224E-11  2.11229682320081E-01
 cg2d: Sum(rhs),rhsMax =  -1.39043221381030E-11  2.12255842699972E-01
 cg2d: Sum(rhs),rhsMax =  -1.38653533099387E-11  2.13135753961900E-01
 cg2d: Sum(rhs),rhsMax =  -1.38118405601517E-11  2.13868521337879E-01
 cg2d: Sum(rhs),rhsMax =  -1.37949651701774E-11  2.14453540711804E-01
 cg2d: Sum(rhs),rhsMax =  -1.37372335728969E-11  2.14890501165810E-01
 cg2d: Sum(rhs),rhsMax =  -1.37313493908664E-11  2.15179386201505E-01
 cg2d: Sum(rhs),rhsMax =  -1.37174716030586E-11  2.15320473533076E-01
 cg2d: Sum(rhs),rhsMax =  -1.37253541865334E-11  2.15314333452783E-01
 cg2d: Sum(rhs),rhsMax =  -1.37123645771453E-11  2.15161825821175E-01
 cg2d: Sum(rhs),rhsMax =  -1.37441169556496E-11  2.14864095762243E-01
 cg2d: Sum(rhs),rhsMax =  -1.38044020658867E-11  2.14422567912158E-01
 cg2d: Sum(rhs),rhsMax =  -1.38713485142716E-11  2.13838939809069E-01
 cg2d: Sum(rhs),rhsMax =  -1.39713796087904E-11  2.13115174111739E-01
 cg2d: Sum(rhs),rhsMax =  -1.40284450722561E-11  2.12253489383661E-01
 cg2d: Sum(rhs),rhsMax =  -1.40977229889927E-11  2.11256350722371E-01
 cg2d: Sum(rhs),rhsMax =  -1.41928691022031E-11  2.10126460146139E-01
 cg2d: Sum(rhs),rhsMax =  -1.42922340629070E-11  2.08866746182927E-01
 cg2d: Sum(rhs),rhsMax =  -1.43876022207223E-11  2.07480352274160E-01
 cg2d: Sum(rhs),rhsMax =  -1.45010670138390E-11  2.05970624306984E-01
 cg2d: Sum(rhs),rhsMax =  -1.46456180516452E-11  2.04341097489385E-01
 cg2d: Sum(rhs),rhsMax =  -1.48325796089921E-11  2.02595484244721E-01
 cg2d: Sum(rhs),rhsMax =  -1.50118806274691E-11  2.00737659315053E-01
 cg2d: Sum(rhs),rhsMax =  -1.51978429840938E-11  1.98978233780031E-01
 cg2d: Sum(rhs),rhsMax =  -1.53417278880852E-11  1.97887516384318E-01
 cg2d: Sum(rhs),rhsMax =  -1.54873891489160E-11  1.96648111032527E-01
 cg2d: Sum(rhs),rhsMax =  -1.56719082156087E-11  1.95262901566393E-01
 cg2d: Sum(rhs),rhsMax =  -1.58362212232532E-11  1.93735028556658E-01
 cg2d: Sum(rhs),rhsMax =  -1.60692570361221E-11  1.92067874529204E-01
 cg2d: Sum(rhs),rhsMax =  -1.62992952468244E-11  1.90265047779724E-01
 cg2d: Sum(rhs),rhsMax =  -1.65358837733720E-11  1.88330365717539E-01
 cg2d: Sum(rhs),rhsMax =  -1.67593716682291E-11  1.86267838288174E-01
 cg2d: Sum(rhs),rhsMax =  -1.70529146359399E-11  1.84081650256739E-01
 cg2d: Sum(rhs),rhsMax =  -1.73306924367012E-11  1.81776144251157E-01
 cg2d: Sum(rhs),rhsMax =  -1.76495484893735E-11  1.79355802773260E-01
 cg2d: Sum(rhs),rhsMax =  -1.79541936873306E-11  1.76825231372665E-01
 cg2d: Sum(rhs),rhsMax =  -1.81696879764104E-11  1.74189140843896E-01
 cg2d: Sum(rhs),rhsMax =  -1.84918746981566E-11  1.71452329119061E-01
 cg2d: Sum(rhs),rhsMax =  -1.88127291522733E-11  1.68619663032815E-01
 cg2d: Sum(rhs),rhsMax =  -1.91809901295414E-11  1.65696060137634E-01
 cg2d: Sum(rhs),rhsMax =  -1.95169436167930E-11  1.62686470743608E-01
 cg2d: Sum(rhs),rhsMax =  -1.99206207085467E-11  1.59595860212644E-01
 cg2d: Sum(rhs),rhsMax =  -2.03504990636816E-11  1.56429191885415E-01
 cg2d: Sum(rhs),rhsMax =  -2.07059924761666E-11  1.53191409860153E-01
 cg2d: Sum(rhs),rhsMax =  -2.10629291785835E-11  1.49887423147929E-01
 cg2d: Sum(rhs),rhsMax =  -2.14709361401333E-11  1.46522090026333E-01
 cg2d: Sum(rhs),rhsMax =  -2.19134710377489E-11  1.43100203367223E-01
 cg2d: Sum(rhs),rhsMax =  -2.24146257110647E-11  1.39626476106003E-01
 cg2d: Sum(rhs),rhsMax =  -2.29387620009902E-11  1.36105527206786E-01
 cg2d: Sum(rhs),rhsMax =  -2.35126362824190E-11  1.32541868265699E-01
 cg2d: Sum(rhs),rhsMax =  -2.41172637416298E-11  1.28939891215270E-01
 cg2d: Sum(rhs),rhsMax =  -2.47549758469745E-11  1.25303856455682E-01
 cg2d: Sum(rhs),rhsMax =  -2.54521959064391E-11  1.21637881812408E-01
 cg2d: Sum(rhs),rhsMax =  -2.61608512630573E-11  1.17945933727370E-01
 cg2d: Sum(rhs),rhsMax =  -2.69797517660209E-11  1.14231818341306E-01
 cg2d: Sum(rhs),rhsMax =  -2.78321810043280E-11  1.10499172335841E-01
 cg2d: Sum(rhs),rhsMax =  -2.87028179002391E-11  1.06751457153152E-01
 cg2d: Sum(rhs),rhsMax =  -2.97109004065987E-11  1.02991952953446E-01
 cg2d: Sum(rhs),rhsMax =  -3.07700531720911E-11  9.92237529476604E-02
 cg2d: Sum(rhs),rhsMax =  -3.19071435939122E-11  9.54497604583527E-02
 cg2d: Sum(rhs),rhsMax =  -3.31547012066835E-11  9.16726862332961E-02
 cg2d: Sum(rhs),rhsMax =  -3.44938522189864E-11  8.78950466150055E-02
 cg2d: Sum(rhs),rhsMax =  -3.59651197712196E-11  8.41191631154792E-02
 cg2d: Sum(rhs),rhsMax =  -3.76412234714962E-11  8.03769733034634E-02
 cg2d: Sum(rhs),rhsMax =  -3.90676380135346E-11  7.73855051541244E-02
 cg2d: Sum(rhs),rhsMax =  -4.06936706554006E-11  7.44156504430865E-02
 cg2d: Sum(rhs),rhsMax =  -4.24484891681232E-11  7.14670281040770E-02
 cg2d: Sum(rhs),rhsMax =  -4.42675895939715E-11  6.85390783609131E-02
 cg2d: Sum(rhs),rhsMax =  -4.61719551481110E-11  6.56310679722949E-02
 cg2d: Sum(rhs),rhsMax =  -4.84510209730615E-11  6.27420959367581E-02
 cg2d: Sum(rhs),rhsMax =  -5.08126873910442E-11  5.98711000857235E-02
 cg2d: Sum(rhs),rhsMax =  -5.33950661463223E-11  5.70168641012853E-02
 cg2d: Sum(rhs),rhsMax =  -5.62603297282749E-11  5.41780249110292E-02
 cg2d: Sum(rhs),rhsMax =  -5.93943783044892E-11  5.13530804326038E-02
 cg2d: Sum(rhs),rhsMax =  -6.29304386379204E-11  4.85403981179177E-02
 cg2d: Sum(rhs),rhsMax =  -6.68783917134874E-11  4.57382237394988E-02
 cg2d: Sum(rhs),rhsMax =  -7.13434866739249E-11  4.29446904370597E-02
 cg2d: Sum(rhs),rhsMax =  -7.64119878482461E-11  4.01578279573369E-02
 cg2d: Sum(rhs),rhsMax =  -8.22618639872985E-11  3.73755726806021E-02
 cg2d: Sum(rhs),rhsMax =  -8.88957796263412E-11  3.45957779578307E-02
 cg2d: Sum(rhs),rhsMax =  -8.92451668121907E-11  3.44915888693027E-02
 cg2d: Sum(rhs),rhsMax =  -8.88458751013843E-11  3.46813265343000E-02
 cg2d: Sum(rhs),rhsMax =  -8.84090578523455E-11  3.48748757160892E-02
 cg2d: Sum(rhs),rhsMax =  -8.80016337578837E-11  3.50657504995763E-02
 cg2d: Sum(rhs),rhsMax =  -8.75876177142132E-11  3.52529064624695E-02
 cg2d: Sum(rhs),rhsMax =  -8.71903400173624E-11  3.54369608154861E-02
 cg2d: Sum(rhs),rhsMax =  -8.68234512063637E-11  3.56187314952362E-02
 cg2d: Sum(rhs),rhsMax =  -8.64653904031343E-11  3.57988263553494E-02
 cg2d: Sum(rhs),rhsMax =  -8.61080651226587E-11  3.59776245639816E-02
 cg2d: Sum(rhs),rhsMax =  -8.57502957529732E-11  3.61554692006881E-02
 cg2d: Sum(rhs),rhsMax =  -8.54150639106876E-11  3.63327681621342E-02
 cg2d: Sum(rhs),rhsMax =  -8.50624015669155E-11  3.65099804443429E-02
 cg2d: Sum(rhs),rhsMax =  -8.47353298638609E-11  3.66875743473520E-02
 cg2d: Sum(rhs),rhsMax =  -8.44005976219364E-11  3.68659910941452E-02
 cg2d: Sum(rhs),rhsMax =  -8.40394420720258E-11  3.70456516951762E-02
 cg2d: Sum(rhs),rhsMax =  -8.37218072646806E-11  3.72268358086068E-02
 cg2d: Sum(rhs),rhsMax =  -8.34075031264092E-11  3.74098159007616E-02
 cg2d: Sum(rhs),rhsMax =  -7.68753949387246E-11  4.06009599012067E-02
 cg2d: Sum(rhs),rhsMax =  -7.10236314205304E-11  4.39742568277654E-02
 cg2d: Sum(rhs),rhsMax =  -6.60190790924275E-11  4.73406354052445E-02
 cg2d: Sum(rhs),rhsMax =  -6.17272899461341E-11  5.06998564638328E-02
 cg2d: Sum(rhs),rhsMax =  -5.79587489113464E-11  5.40515630943004E-02
 cg2d: Sum(rhs),rhsMax =  -5.46149792057804E-11  5.73952768719155E-02
 cg2d: Sum(rhs),rhsMax =  -5.16693354768449E-11  6.07303949285340E-02
 cg2d: Sum(rhs),rhsMax =  -4.90403273545326E-11  6.40561877574766E-02
 cg2d: Sum(rhs),rhsMax =  -4.66524596731688E-11  6.73717977310356E-02
 cg2d: Sum(rhs),rhsMax =  -4.45097292356422E-11  7.06762382600789E-02
 cg2d: Sum(rhs),rhsMax =  -4.25943724735589E-11  7.39683935641807E-02
 cg2d: Sum(rhs),rhsMax =  -4.08948430674627E-11  7.72470191956777E-02
 cg2d: Sum(rhs),rhsMax =  -3.93607368920357E-11  8.05107428074757E-02
 cg2d: Sum(rhs),rhsMax =  -3.79092313096407E-11  8.37580656471554E-02
 cg2d: Sum(rhs),rhsMax =  -3.65998342743978E-11  8.69873647931607E-02
 cg2d: Sum(rhs),rhsMax =  -3.53725937429772E-11  9.01968960316568E-02
 cg2d: Sum(rhs),rhsMax =  -3.42476047521245E-11  9.33847973231493E-02
 cg2d: Sum(rhs),rhsMax =  -3.31900062988666E-11  9.65490928704331E-02
 cg2d: Sum(rhs),rhsMax =  -3.22133431041038E-11  9.96876977584714E-02
 cg2d: Sum(rhs),rhsMax =  -3.12789794065793E-11  1.02798423195682E-01
 cg2d: Sum(rhs),rhsMax =  -3.04574143683567E-11  1.05878982404688E-01
 cg2d: Sum(rhs),rhsMax =  -2.96567215229970E-11  1.08926997012098E-01
 cg2d: Sum(rhs),rhsMax =  -2.88973289741534E-11  1.11940003936060E-01
 cg2d: Sum(rhs),rhsMax =  -2.81863421491835E-11  1.14915462727861E-01
 cg2d: Sum(rhs),rhsMax =  -2.75459655085797E-11  1.17850763424992E-01
 cg2d: Sum(rhs),rhsMax =  -2.69034794442291E-11  1.20743234873858E-01
 cg2d: Sum(rhs),rhsMax =  -2.63138399958507E-11  1.23590153458195E-01
 cg2d: Sum(rhs),rhsMax =  -2.58100207872758E-11  1.26388752288177E-01
 cg2d: Sum(rhs),rhsMax =  -2.52842191628133E-11  1.29136230444808E-01
 cg2d: Sum(rhs),rhsMax =  -2.48450149342716E-11  1.31829762501971E-01
 cg2d: Sum(rhs),rhsMax =  -2.43902675833851E-11  1.34466508367065E-01
 cg2d: Sum(rhs),rhsMax =  -2.39399611245972E-11  1.37043623350044E-01
 cg2d: Sum(rhs),rhsMax =  -2.35433894602011E-11  1.39558268143703E-01
 cg2d: Sum(rhs),rhsMax =  -2.31481500634345E-11  1.42007618958519E-01
 cg2d: Sum(rhs),rhsMax =  -2.25128804487440E-11  1.45949128129012E-01
 cg2d: Sum(rhs),rhsMax =  -2.19605444939930E-11  1.49937089829616E-01
 cg2d: Sum(rhs),rhsMax =  -2.14050999147730E-11  1.53890020124644E-01
 cg2d: Sum(rhs),rhsMax =  -2.08453254657570E-11  1.57802561819088E-01
 cg2d: Sum(rhs),rhsMax =  -2.03675964982608E-11  1.61669296058359E-01
 cg2d: Sum(rhs),rhsMax =  -1.98965288689124E-11  1.65484758136117E-01
 cg2d: Sum(rhs),rhsMax =  -1.94505522799204E-11  1.69243453620727E-01
 cg2d: Sum(rhs),rhsMax =  -1.90498727903332E-11  1.72939874738289E-01
 cg2d: Sum(rhs),rhsMax =  -1.86777260324789E-11  1.76568516948502E-01
 cg2d: Sum(rhs),rhsMax =  -1.82904802414896E-11  1.80123895648363E-01
 cg2d: Sum(rhs),rhsMax =  -1.79606329808735E-11  1.83600562936486E-01
 cg2d: Sum(rhs),rhsMax =  -1.76496595116760E-11  1.86993124366893E-01
 cg2d: Sum(rhs),rhsMax =  -1.73833170080684E-11  1.90296255617801E-01
 cg2d: Sum(rhs),rhsMax =  -1.71030967166530E-11  1.93504718996666E-01
 cg2d: Sum(rhs),rhsMax =  -1.68561831159764E-11  1.96613379716618E-01
 cg2d: Sum(rhs),rhsMax =  -1.66386904254523E-11  1.99617221870069E-01
 cg2d: Sum(rhs),rhsMax =  -1.64140923075706E-11  2.02511364026152E-01
 cg2d: Sum(rhs),rhsMax =  -1.62213575904957E-11  2.05291074380750E-01
 cg2d: Sum(rhs),rhsMax =  -1.60010893424101E-11  2.07951785385479E-01
 cg2d: Sum(rhs),rhsMax =  -1.58497659441537E-11  2.10489107797638E-01
 cg2d: Sum(rhs),rhsMax =  -1.56809010221082E-11  2.12898844087344E-01
 cg2d: Sum(rhs),rhsMax =  -1.55437884785670E-11  2.15177001134688E-01
 cg2d: Sum(rhs),rhsMax =  -1.53932422364278E-11  2.17319802149020E-01
 cg2d: Sum(rhs),rhsMax =  -1.52730050828609E-11  2.19323697813555E-01
 cg2d: Sum(rhs),rhsMax =  -1.51941792481125E-11  2.21185376584734E-01
 cg2d: Sum(rhs),rhsMax =  -1.51211265730922E-11  2.22901774185716E-01
 cg2d: Sum(rhs),rhsMax =  -1.50569556822688E-11  2.24470082127886E-01
 cg2d: Sum(rhs),rhsMax =  -1.49706913532555E-11  2.25887755312636E-01
 cg2d: Sum(rhs),rhsMax =  -1.49238399416163E-11  2.27152518678251E-01
 cg2d: Sum(rhs),rhsMax =  -1.48362433449734E-11  2.28262372940091E-01
 cg2d: Sum(rhs),rhsMax =  -1.47925005578031E-11  2.29215599374920E-01
 cg2d: Sum(rhs),rhsMax =  -1.47675205397491E-11  2.30010763954581E-01
 cg2d: Sum(rhs),rhsMax =  -1.46992418237346E-11  2.30646719824685E-01
 cg2d: Sum(rhs),rhsMax =  -1.46721523819338E-11  2.31122608636352E-01
 cg2d: Sum(rhs),rhsMax =  -1.46642697984589E-11  2.31437861093050E-01
 cg2d: Sum(rhs),rhsMax =  -1.46529455236077E-11  2.31592196708638E-01
 cg2d: Sum(rhs),rhsMax =  -1.46626044639220E-11  2.31585622650081E-01
 cg2d: Sum(rhs),rhsMax =  -1.46639367315515E-11  2.31418431517312E-01
 cg2d: Sum(rhs),rhsMax =  -1.46936907086115E-11  2.31091198053233E-01
 cg2d: Sum(rhs),rhsMax =  -1.47030165820183E-11  2.30604774747451E-01
 cg2d: Sum(rhs),rhsMax =  -1.47744039225017E-11  2.29960286281956E-01
 cg2d: Sum(rhs),rhsMax =  -1.48342449435290E-11  2.29159123434569E-01
 cg2d: Sum(rhs),rhsMax =  -1.48837608904273E-11  2.28202935227744E-01
 cg2d: Sum(rhs),rhsMax =  -1.49545931193984E-11  2.27093620778663E-01
 cg2d: Sum(rhs),rhsMax =  -1.50506274110285E-11  2.25833320399203E-01
 cg2d: Sum(rhs),rhsMax =  -1.51317847141286E-11  2.24424406991716E-01
 cg2d: Sum(rhs),rhsMax =  -1.52597934288679E-11  2.22869475978195E-01
 cg2d: Sum(rhs),rhsMax =  -1.53878021436071E-11  2.21171333925080E-01
 cg2d: Sum(rhs),rhsMax =  -1.54891655057554E-11  2.19332986559826E-01
 cg2d: Sum(rhs),rhsMax =  -1.56333834766542E-11  2.17357627281664E-01
 cg2d: Sum(rhs),rhsMax =  -1.57789337151826E-11  2.15248623247699E-01
 cg2d: Sum(rhs),rhsMax =  -1.60890190059604E-11  2.13009502465969E-01
 cg2d: Sum(rhs),rhsMax =  -1.63656865836970E-11  2.10643938990294E-01
 cg2d: Sum(rhs),rhsMax =  -1.66663349787655E-11  2.08155739208018E-01
 cg2d: Sum(rhs),rhsMax =  -1.68343117223912E-11  2.05548827946441E-01
 cg2d: Sum(rhs),rhsMax =  -1.69735336896792E-11  2.02827234619610E-01
 cg2d: Sum(rhs),rhsMax =  -1.71653802283345E-11  1.99995079455973E-01
 cg2d: Sum(rhs),rhsMax =  -1.73867586994447E-11  1.97056559446971E-01
 cg2d: Sum(rhs),rhsMax =  -1.75863767992723E-11  1.94015934093037E-01
 cg2d: Sum(rhs),rhsMax =  -1.77923231703403E-11  1.90877511292251E-01
 cg2d: Sum(rhs),rhsMax =  -1.80229164925549E-11  1.87645633492575E-01
 cg2d: Sum(rhs),rhsMax =  -1.83485449056775E-11  1.84324664063280E-01
 cg2d: Sum(rhs),rhsMax =  -1.86477500108140E-11  1.80918973977519E-01
 cg2d: Sum(rhs),rhsMax =  -1.89415150231298E-11  1.77432928620230E-01
 cg2d: Sum(rhs),rhsMax =  -1.93133287140768E-11  1.73870875213437E-01
 cg2d: Sum(rhs),rhsMax =  -1.96738181301725E-11  1.70237130752670E-01
 cg2d: Sum(rhs),rhsMax =  -2.00752747758770E-11  1.66535969799393E-01
 cg2d: Sum(rhs),rhsMax =  -2.04605221654219E-11  1.62771612964648E-01
 cg2d: Sum(rhs),rhsMax =  -2.08919548327913E-11  1.58948217127081E-01
 cg2d: Sum(rhs),rhsMax =  -2.13512540980787E-11  1.55069864641261E-01
 cg2d: Sum(rhs),rhsMax =  -2.18317586231365E-11  1.51140554523865E-01
 cg2d: Sum(rhs),rhsMax =  -2.23500107310315E-11  1.47164194024148E-01
 cg2d: Sum(rhs),rhsMax =  -2.28954633030298E-11  1.43144589996416E-01
 cg2d: Sum(rhs),rhsMax =  -2.35133024162337E-11  1.39085441338814E-01
 cg2d: Sum(rhs),rhsMax =  -2.41681119561576E-11  1.34990331965308E-01
 cg2d: Sum(rhs),rhsMax =  -2.49177345423846E-11  1.30862724480576E-01
 cg2d: Sum(rhs),rhsMax =  -2.56951127042271E-11  1.26705954643128E-01
 cg2d: Sum(rhs),rhsMax =  -2.65312216640723E-11  1.22523226692827E-01
 cg2d: Sum(rhs),rhsMax =  -2.74359424068393E-11  1.18317609315850E-01
 cg2d: Sum(rhs),rhsMax =  -2.84039458620100E-11  1.14092032357556E-01
 cg2d: Sum(rhs),rhsMax =  -2.94336777173498E-11  1.09849284363009E-01
 cg2d: Sum(rhs),rhsMax =  -3.05847569492812E-11  1.05592011151606E-01
 cg2d: Sum(rhs),rhsMax =  -3.17752490985868E-11  1.01322714528526E-01
 cg2d: Sum(rhs),rhsMax =  -3.31283889209999E-11  9.70437518391493E-02
 cg2d: Sum(rhs),rhsMax =  -3.45854456185180E-11  9.27573365828518E-02
 cg2d: Sum(rhs),rhsMax =  -3.61578544882946E-11  8.84655399477118E-02
 cg2d: Sum(rhs),rhsMax =  -3.79192233168624E-11  8.41702924363652E-02
 cg2d: Sum(rhs),rhsMax =  -3.99462685152230E-11  7.98733864385918E-02
 cg2d: Sum(rhs),rhsMax =  -4.21819246199107E-11  7.55764796542503E-02
 cg2d: Sum(rhs),rhsMax =  -4.46920278562857E-11  7.12810990104928E-02
 cg2d: Sum(rhs),rhsMax =  -4.75265382604562E-11  6.69886451053250E-02
 cg2d: Sum(rhs),rhsMax =  -5.06867881000517E-11  6.27003972108612E-02
 cg2d: Sum(rhs),rhsMax =  -5.43807221475845E-11  5.84175188807972E-02
 cg2d: Sum(rhs),rhsMax =  -5.68393110356169E-11  5.58401563266146E-02
 cg2d: Sum(rhs),rhsMax =  -5.69678748618685E-11  5.56482951368642E-02
 cg2d: Sum(rhs),rhsMax =  -5.71085401190885E-11  5.54537888261772E-02
 cg2d: Sum(rhs),rhsMax =  -5.72706326806838E-11  5.52568881267011E-02
 cg2d: Sum(rhs),rhsMax =  -5.74094105587619E-11  5.50581436276826E-02
 cg2d: Sum(rhs),rhsMax =  -5.75325342921928E-11  5.48587626336056E-02
 cg2d: Sum(rhs),rhsMax =  -5.76872993818256E-11  5.46590708576184E-02
 cg2d: Sum(rhs),rhsMax =  -5.78370684678475E-11  5.44591604405584E-02
 cg2d: Sum(rhs),rhsMax =  -5.79883918661039E-11  5.42596520176025E-02
 cg2d: Sum(rhs),rhsMax =  -5.81400483312677E-11  5.40609432925935E-02
 cg2d: Sum(rhs),rhsMax =  -5.82978665342182E-11  5.38632436584185E-02
 cg2d: Sum(rhs),rhsMax =  -5.84646775436681E-11  5.36671750071810E-02
 cg2d: Sum(rhs),rhsMax =  -5.86205806119011E-11  5.34730916033260E-02
 cg2d: Sum(rhs),rhsMax =  -5.87655757389172E-11  5.32811607913805E-02
 cg2d: Sum(rhs),rhsMax =  -5.89142762352779E-11  5.30919869477058E-02
 cg2d: Sum(rhs),rhsMax =  -5.90583137949352E-11  5.29059131502082E-02
 cg2d: Sum(rhs),rhsMax =  -5.91953361328557E-11  5.27230667717683E-02
 cg2d: Sum(rhs),rhsMax =  -5.93248228319965E-11  5.25500504262401E-02
 cg2d: Sum(rhs),rhsMax =  -5.94504862005962E-11  5.23873382217530E-02
 cg2d: Sum(rhs),rhsMax =  -5.95773153033718E-11  5.22343578631805E-02
 cg2d: Sum(rhs),rhsMax =  -5.96885874060149E-11  5.20870139410080E-02
 cg2d: Sum(rhs),rhsMax =  -5.98059102241422E-11  5.19468056681502E-02
 cg2d: Sum(rhs),rhsMax =  -5.99086891206468E-11  5.18156791652928E-02
 cg2d: Sum(rhs),rhsMax =  -5.99559291103446E-11  5.16916710755245E-02
 cg2d: Sum(rhs),rhsMax =  -6.00752780854918E-11  5.15748368543591E-02
 cg2d: Sum(rhs),rhsMax =  -6.01573235670116E-11  5.14651447818731E-02
 cg2d: Sum(rhs),rhsMax =  -5.83536552412056E-11  5.29798336767916E-02
 cg2d: Sum(rhs),rhsMax =  -5.44146949721380E-11  5.68083444285150E-02
 cg2d: Sum(rhs),rhsMax =  -5.09051689689954E-11  6.06900430376707E-02
 cg2d: Sum(rhs),rhsMax =  -4.78133088677168E-11  6.45492189059375E-02
 cg2d: Sum(rhs),rhsMax =  -4.51066961559832E-11  6.83847611277019E-02
 cg2d: Sum(rhs),rhsMax =  -4.26844115608560E-11  7.21954758708283E-02
 cg2d: Sum(rhs),rhsMax =  -4.05018241167454E-11  7.59800854958082E-02
 cg2d: Sum(rhs),rhsMax =  -3.85146359249688E-11  7.97372281955473E-02
 cg2d: Sum(rhs),rhsMax =  -3.66875418933432E-11  8.34654581772536E-02
 cg2d: Sum(rhs),rhsMax =  -3.50449669284103E-11  8.71632463853015E-02
 cg2d: Sum(rhs),rhsMax =  -3.35357297487349E-11  9.08289817524179E-02
 cg2d: Sum(rhs),rhsMax =  -3.21693782723287E-11  9.44609729656070E-02
 cg2d: Sum(rhs),rhsMax =  -3.09162695444343E-11  9.80574507364651E-02
 cg2d: Sum(rhs),rhsMax =  -2.97633029333610E-11  1.01616570566316E-01
 cg2d: Sum(rhs),rhsMax =  -2.86908274915731E-11  1.05136415994932E-01
 cg2d: Sum(rhs),rhsMax =  -2.76400013987654E-11  1.08615002317608E-01
 cg2d: Sum(rhs),rhsMax =  -2.66902056011986E-11  1.12050280751984E-01
 cg2d: Sum(rhs),rhsMax =  -2.57818211224503E-11  1.15440143034406E-01
 cg2d: Sum(rhs),rhsMax =  -2.49770204518995E-11  1.18782426411752E-01
 cg2d: Sum(rhs),rhsMax =  -2.42001974015693E-11  1.22074918995076E-01
 cg2d: Sum(rhs),rhsMax =  -2.34983144054013E-11  1.25315365448957E-01
 cg2d: Sum(rhs),rhsMax =  -2.28483898467857E-11  1.28501472994485E-01
 cg2d: Sum(rhs),rhsMax =  -2.23830953771653E-11  1.31630917702466E-01
 cg2d: Sum(rhs),rhsMax =  -2.19012585844780E-11  1.34701351048399E-01
 cg2d: Sum(rhs),rhsMax =  -2.14401829623512E-11  1.37710406698051E-01
 cg2d: Sum(rhs),rhsMax =  -2.10030881575562E-11  1.40655707495728E-01
 cg2d: Sum(rhs),rhsMax =  -2.05856443002972E-11  1.43534872627767E-01
 cg2d: Sum(rhs),rhsMax =  -2.02184935460537E-11  1.46345524931772E-01
 cg2d: Sum(rhs),rhsMax =  -1.98751015645371E-11  1.49085298351024E-01
 cg2d: Sum(rhs),rhsMax =  -1.95612415154756E-11  1.51751845511510E-01
 cg2d: Sum(rhs),rhsMax =  -1.92702520607213E-11  1.54342845355557E-01
 cg2d: Sum(rhs),rhsMax =  -1.90243376607668E-11  1.56856010910676E-01
 cg2d: Sum(rhs),rhsMax =  -1.87995174982802E-11  1.59289097124399E-01
 cg2d: Sum(rhs),rhsMax =  -1.85514936745790E-11  1.61639908684760E-01
 cg2d: Sum(rhs),rhsMax =  -1.83076886983713E-11  1.63906307762161E-01
 cg2d: Sum(rhs),rhsMax =  -1.81330506165978E-11  1.66086221634142E-01
 cg2d: Sum(rhs),rhsMax =  -1.79488646168124E-11  1.68177650148883E-01
 cg2d: Sum(rhs),rhsMax =  -1.77666770184715E-11  1.70178672988150E-01
 cg2d: Sum(rhs),rhsMax =  -1.76464398649046E-11  1.72087456672066E-01
 cg2d: Sum(rhs),rhsMax =  -1.75208736408194E-11  1.73902261239587E-01
 cg2d: Sum(rhs),rhsMax =  -1.74241732153746E-11  1.75621446541641E-01
 cg2d: Sum(rhs),rhsMax =  -1.72499792228109E-11  1.77243478125932E-01
 cg2d: Sum(rhs),rhsMax =  -1.72007963428200E-11  1.78766932655660E-01
 cg2d: Sum(rhs),rhsMax =  -1.70687908251921E-11  1.80190502783898E-01
 cg2d: Sum(rhs),rhsMax =  -1.70086167372574E-11  1.81513001683097E-01
 cg2d: Sum(rhs),rhsMax =  -1.69018132822885E-11  1.82733366932362E-01
 cg2d: Sum(rhs),rhsMax =  -1.68302038972001E-11  1.83850663693706E-01
 cg2d: Sum(rhs),rhsMax =  -1.67850178200979E-11  1.84864087565260E-01
 cg2d: Sum(rhs),rhsMax =  -1.67179603494105E-11  1.85772967043241E-01
 cg2d: Sum(rhs),rhsMax =  -1.66868741047210E-11  1.86576765627891E-01
 cg2d: Sum(rhs),rhsMax =  -1.66626712427842E-11  1.87275083572859E-01
 cg2d: Sum(rhs),rhsMax =  -1.66011648872200E-11  1.87867659244078E-01
 cg2d: Sum(rhs),rhsMax =  -1.65595315237965E-11  1.88354370090364E-01
 cg2d: Sum(rhs),rhsMax =  -1.65764069137708E-11  1.88735233232079E-01
 cg2d: Sum(rhs),rhsMax =  -1.65552016540005E-11  1.89010405667931E-01
 cg2d: Sum(rhs),rhsMax =  -1.65364388848843E-11  1.89180184110494E-01
 cg2d: Sum(rhs),rhsMax =  -1.65287783460144E-11  1.89245004358612E-01
 cg2d: Sum(rhs),rhsMax =  -1.65617519698458E-11  1.89205440197010E-01
 cg2d: Sum(rhs),rhsMax =  -1.66024971548495E-11  1.89062201709883E-01
 cg2d: Sum(rhs),rhsMax =  -1.66697766701418E-11  1.88816133399184E-01
 cg2d: Sum(rhs),rhsMax =  -1.67683644747285E-11  1.88468211665296E-01
 cg2d: Sum(rhs),rhsMax =  -1.67875713330545E-11  1.88019541106553E-01
 cg2d: Sum(rhs),rhsMax =  -1.68585145843281E-11  1.87471351066115E-01
 cg2d: Sum(rhs),rhsMax =  -1.69642078162724E-11  1.86824991330492E-01
 cg2d: Sum(rhs),rhsMax =  -1.70486957884464E-11  1.86081927570884E-01
 cg2d: Sum(rhs),rhsMax =  -1.71296310469415E-11  1.85243736553960E-01
 cg2d: Sum(rhs),rhsMax =  -1.72557523825390E-11  1.84312100682711E-01
 cg2d: Sum(rhs),rhsMax =  -1.73763226030133E-11  1.83288801557927E-01
 cg2d: Sum(rhs),rhsMax =  -1.75039982508451E-11  1.82175713497463E-01
 cg2d: Sum(rhs),rhsMax =  -1.76226810921776E-11  1.80974797524923E-01
 cg2d: Sum(rhs),rhsMax =  -1.77345915730598E-11  1.79688095267098E-01
 cg2d: Sum(rhs),rhsMax =  -1.78660419791754E-11  1.78317721824922E-01
 cg2d: Sum(rhs),rhsMax =  -1.80155890205924E-11  1.76865859562171E-01
 cg2d: Sum(rhs),rhsMax =  -1.81592518799789E-11  1.75334751599057E-01
 cg2d: Sum(rhs),rhsMax =  -1.83043580292974E-11  1.73726695232730E-01
 cg2d: Sum(rhs),rhsMax =  -1.85209625414018E-11  1.72044035649422E-01
 cg2d: Sum(rhs),rhsMax =  -1.87339033175249E-11  1.70289159889194E-01
 cg2d: Sum(rhs),rhsMax =  -1.89546156548204E-11  1.68464491153295E-01
 cg2d: Sum(rhs),rhsMax =  -1.91692217654804E-11  1.66572482488860E-01
 cg2d: Sum(rhs),rhsMax =  -1.94551041943214E-11  1.64615610609138E-01
 cg2d: Sum(rhs),rhsMax =  -1.97283300806816E-11  1.62774625032291E-01
 cg2d: Sum(rhs),rhsMax =  -1.99955607627089E-11  1.60928008448662E-01
 cg2d: Sum(rhs),rhsMax =  -2.03429495471141E-11  1.58989096416292E-01
 cg2d: Sum(rhs),rhsMax =  -2.06826777926494E-11  1.56960488762721E-01
 cg2d: Sum(rhs),rhsMax =  -2.10573780634604E-11  1.54844859548142E-01
 cg2d: Sum(rhs),rhsMax =  -2.14106510298961E-11  1.52644948026903E-01
 cg2d: Sum(rhs),rhsMax =  -2.18366436044448E-11  1.50363549687608E-01
(PID.TID 0000.0001)      cg2d_init_res =   7.89168052945928E-02
(PID.TID 0000.0001)      cg2d_iters(min,last) =      -1      37
(PID.TID 0000.0001)      cg2d_last_res =   6.83602907757678E-14
(PID.TID 0000.0001) // =======================================================
(PID.TID 0000.0001) // Begin MONITOR dynamic field statistics
(PID.TID 0000.0001) // =======================================================
(PID.TID 0000.0001) %MON time_tsnumber                =                  1440
(PID.TID 0000.0001) %MON time_secondsf                =   2.1600000000000E+04
(PID.TID 0000.0001) %MON dynstat_eta_max              =   3.1253422601294E-02
(PID.TID 0000.0001) %MON dynstat_eta_min              =  -2.5950112524306E-02
(PID.TID 0000.0001) %MON dynstat_eta_mean             =   7.2741574036306E-15
(PID.TID 0000.0001) %MON dynstat_eta_sd               =   2.0350484991069E-02
(PID.TID 0000.0001) %MON dynstat_eta_del2             =   4.8467277753376E-05
(PID.TID 0000.0001) %MON dynstat_uvel_max             =   1.1732211205598E+00
(PID.TID 0000.0001) %MON dynstat_uvel_min             =   8.4668074180858E-02
(PID.TID 0000.0001) %MON dynstat_uvel_mean            =   4.5059656736286E-01
(PID.TID 0000.0001) %MON dynstat_uvel_sd              =   3.4019782744230E-02
(PID.TID 0000.0001) %MON dynstat_uvel_del2            =   4.9431377651879E-04
(PID.TID 0000.0001) %MON dynstat_vvel_max             =   0.0000000000000E+00
(PID.TID 0000.0001) %MON dynstat_vvel_min             =   0.0000000000000E+00
(PID.TID 0000.0001) %MON dynstat_vvel_mean            =   0.0000000000000E+00
(PID.TID 0000.0001) %MON dynstat_vvel_sd              =   0.0000000000000E+00
(PID.TID 0000.0001) %MON dynstat_vvel_del2            =   0.0000000000000E+00
(PID.TID 0000.0001) %MON dynstat_wvel_max             =   1.3736269469268E-02
(PID.TID 0000.0001) %MON dynstat_wvel_min             =  -5.1284665967239E-02
(PID.TID 0000.0001) %MON dynstat_wvel_mean            =  -4.6141091200639E-21
(PID.TID 0000.0001) %MON dynstat_wvel_sd              =   1.9148623454865E-03
(PID.TID 0000.0001) %MON dynstat_wvel_del2            =   3.6818597272668E-05
(PID.TID 0000.0001) %MON dynstat_theta_max            =   1.5000000000003E+01
(PID.TID 0000.0001) %MON dynstat_theta_min            =   9.9999999999960E+00
(PID.TID 0000.0001) %MON dynstat_theta_mean           =   1.1004807852415E+01
(PID.TID 0000.0001) %MON dynstat_theta_sd             =   1.9382307283823E+00
(PID.TID 0000.0001) %MON dynstat_theta_del2           =   4.4118628679239E-04
(PID.TID 0000.0001) %MON dynstat_salt_max             =   3.5000000000000E+01
(PID.TID 0000.0001) %MON dynstat_salt_min             =   3.5000000000000E+01
(PID.TID 0000.0001) %MON dynstat_salt_mean            =   3.5000000000000E+01
(PID.TID 0000.0001) %MON dynstat_salt_sd              =   4.0500935938326E-13
(PID.TID 0000.0001) %MON dynstat_salt_del2            =   0.0000000000000E+00
(PID.TID 0000.0001) %MON dynstat_sst_max              =   1.5000000000003E+01
(PID.TID 0000.0001) %MON dynstat_sst_min              =   1.5000000000000E+01
(PID.TID 0000.0001) %MON dynstat_sst_mean             =   1.5000000000002E+01
(PID.TID 0000.0001) %MON dynstat_sst_sd               =   9.2186555175531E-13
(PID.TID 0000.0001) %MON dynstat_sst_del2             =   3.5934634178744E-15
(PID.TID 0000.0001) %MON dynstat_sss_max              =   3.5000000000000E+01
(PID.TID 0000.0001) %MON dynstat_sss_min              =   3.5000000000000E+01
(PID.TID 0000.0001) %MON dynstat_sss_mean             =   3.5000000000000E+01
(PID.TID 0000.0001) %MON dynstat_sss_sd               =   4.2632564145606E-14
(PID.TID 0000.0001) %MON dynstat_sss_del2             =   0.0000000000000E+00
(PID.TID 0000.0001) %MON forcing_qnet_max             =   0.0000000000000E+00
(PID.TID 0000.0001) %MON forcing_qnet_min             =   0.0000000000000E+00
(PID.TID 0000.0001) %MON forcing_qnet_mean            =   0.0000000000000E+00
(PID.TID 0000.0001) %MON forcing_qnet_sd              =   0.0000000000000E+00
(PID.TID 0000.0001) %MON forcing_qnet_del2            =   0.0000000000000E+00
(PID.TID 0000.0001) %MON forcing_qsw_max              =   0.0000000000000E+00
(PID.TID 0000.0001) %MON forcing_qsw_min              =   0.0000000000000E+00
(PID.TID 0000.0001) %MON forcing_qsw_mean             =   0.0000000000000E+00
(PID.TID 0000.0001) %MON forcing_qsw_sd               =   0.0000000000000E+00
(PID.TID 0000.0001) %MON forcing_qsw_del2             =   0.0000000000000E+00
(PID.TID 0000.0001) %MON forcing_empmr_max            =   0.0000000000000E+00
(PID.TID 0000.0001) %MON forcing_empmr_min            =   0.0000000000000E+00
(PID.TID 0000.0001) %MON forcing_empmr_mean           =   0.0000000000000E+00
(PID.TID 0000.0001) %MON forcing_empmr_sd             =   0.0000000000000E+00
(PID.TID 0000.0001) %MON forcing_empmr_del2           =   0.0000000000000E+00
(PID.TID 0000.0001) %MON forcing_fu_max               =   0.0000000000000E+00
(PID.TID 0000.0001) %MON forcing_fu_min               =   0.0000000000000E+00
(PID.TID 0000.0001) %MON forcing_fu_mean              =   0.0000000000000E+00
(PID.TID 0000.0001) %MON forcing_fu_sd                =   0.0000000000000E+00
(PID.TID 0000.0001) %MON forcing_fu_del2              =   0.0000000000000E+00
(PID.TID 0000.0001) %MON forcing_fv_max               =   0.0000000000000E+00
(PID.TID 0000.0001) %MON forcing_fv_min               =   0.0000000000000E+00
(PID.TID 0000.0001) %MON forcing_fv_mean              =   0.0000000000000E+00
(PID.TID 0000.0001) %MON forcing_fv_sd                =   0.0000000000000E+00
(PID.TID 0000.0001) %MON forcing_fv_del2              =   0.0000000000000E+00
(PID.TID 0000.0001) %MON advcfl_uvel_max              =   6.3469360491982E-02
(PID.TID 0000.0001) %MON advcfl_vvel_max              =   0.0000000000000E+00
(PID.TID 0000.0001) %MON advcfl_wvel_max              =   2.6747066854716E-01
(PID.TID 0000.0001) %MON advcfl_W_hf_max              =   2.7038059005829E-01
(PID.TID 0000.0001) %MON pe_b_mean                    =   1.0264391030882E-05
(PID.TID 0000.0001) %MON ke_max                       =   3.4769886898809E-01
(PID.TID 0000.0001) %MON ke_mean                      =   1.0208464310624E-01
(PID.TID 0000.0001) %MON ke_vol                       =   9.6656886657870E+10
(PID.TID 0000.0001) %MON vort_r_min                   =   0.0000000000000E+00
(PID.TID 0000.0001) %MON vort_r_max                   =   0.0000000000000E+00
(PID.TID 0000.0001) %MON vort_a_mean                  =   0.0000000000000E+00
(PID.TID 0000.0001) %MON vort_a_sd                    =   0.0000000000000E+00
(PID.TID 0000.0001) %MON vort_p_mean                  =   0.0000000000000E+00
(PID.TID 0000.0001) %MON vort_p_sd                    =   0.0000000000000E+00
(PID.TID 0000.0001) %MON surfExpan_theta_mean         =  -2.9794952988654E-18
(PID.TID 0000.0001) %MON surfExpan_salt_mean          =   2.9981171444833E-19
(PID.TID 0000.0001) // =======================================================
(PID.TID 0000.0001) // End MONITOR dynamic field statistics
(PID.TID 0000.0001) // =======================================================
(PID.TID 0000.0001) // =======================================================
(PID.TID 0000.0001) // Begin OBCS MONITOR field statistics
(PID.TID 0000.0001) // =======================================================
(PID.TID 0000.0001) %MON obc_E_uVel_max               =   4.4822851314926E-01
(PID.TID 0000.0001) %MON obc_E_uVel_min               =   4.4822851314926E-01
(PID.TID 0000.0001) %MON obc_E_uVel_mean              =   4.4822851314926E-01
(PID.TID 0000.0001) %MON obc_E_uVel_sd                =  -1.9428902930940E-16
(PID.TID 0000.0001) %MON obc_E_uVel_Int               =   4.4822851314926E+05
(PID.TID 0000.0001) %MON obc_W_uVel_max               =   4.4822851314926E-01
(PID.TID 0000.0001) %MON obc_W_uVel_min               =   4.4822851314926E-01
(PID.TID 0000.0001) %MON obc_W_uVel_mean              =   4.4822851314926E-01
(PID.TID 0000.0001) %MON obc_W_uVel_sd                =  -1.9428902930940E-16
(PID.TID 0000.0001) %MON obc_W_uVel_Int               =   4.4822851314926E+05
(PID.TID 0000.0001) // =======================================================
(PID.TID 0000.0001) // End OBCS MONITOR field statistics
(PID.TID 0000.0001) // =======================================================
(PID.TID 0000.0001) %CHECKPOINT      1440 0000001440
 cg2d: Sum(rhs),rhsMax =  -2.22739604538447E-11  1.48003507040934E-01
 cg2d: Sum(rhs),rhsMax =  -2.27418084364217E-11  1.45567700584738E-01
 cg2d: Sum(rhs),rhsMax =  -2.31548114015823E-11  1.43059039990442E-01
 cg2d: Sum(rhs),rhsMax =  -2.34662289599896E-11  1.40480455114267E-01
 cg2d: Sum(rhs),rhsMax =  -2.37856401241743E-11  1.37834888342155E-01
 cg2d: Sum(rhs),rhsMax =  -2.42094122526737E-11  1.35125286605953E-01
 cg2d: Sum(rhs),rhsMax =  -2.47221132454456E-11  1.32354594558253E-01
 cg2d: Sum(rhs),rhsMax =  -2.52519116727967E-11  1.29525747520812E-01
 cg2d: Sum(rhs),rhsMax =  -2.58149057685841E-11  1.26641664671130E-01
 cg2d: Sum(rhs),rhsMax =  -2.63934429867163E-11  1.23808131574955E-01
 cg2d: Sum(rhs),rhsMax =  -2.69758659854347E-11  1.21095574217028E-01
 cg2d: Sum(rhs),rhsMax =  -2.76207945404394E-11  1.18361174671703E-01
 cg2d: Sum(rhs),rhsMax =  -2.82458501033034E-11  1.15606575835708E-01
 cg2d: Sum(rhs),rhsMax =  -2.89115398288686E-11  1.12833328237424E-01
 cg2d: Sum(rhs),rhsMax =  -2.96342950178996E-11  1.10042887675704E-01
 cg2d: Sum(rhs),rhsMax =  -3.03902458753669E-11  1.07236613014697E-01
 cg2d: Sum(rhs),rhsMax =  -3.12163628279905E-11  1.04415764353222E-01
 cg2d: Sum(rhs),rhsMax =  -3.20363735539786E-11  1.01581501588761E-01
 cg2d: Sum(rhs),rhsMax =  -3.28582716591086E-11  9.87348834202897E-02
 cg2d: Sum(rhs),rhsMax =  -3.38217231998783E-11  9.58768667733887E-02
 cg2d: Sum(rhs),rhsMax =  -3.49822393275190E-11  9.30083062137082E-02
 cg2d: Sum(rhs),rhsMax =  -3.61372043400365E-11  9.01299540360028E-02
 cg2d: Sum(rhs),rhsMax =  -3.74459352414647E-11  8.72424609546045E-02
 cg2d: Sum(rhs),rhsMax =  -3.87850862537675E-11  8.43463774100234E-02
 cg2d: Sum(rhs),rhsMax =  -4.02752275974194E-11  8.14421551266245E-02
 cg2d: Sum(rhs),rhsMax =  -4.18525214485044E-11  7.85301489376712E-02
 cg2d: Sum(rhs),rhsMax =  -4.35693703337847E-11  7.56106192943482E-02
 cg2d: Sum(rhs),rhsMax =  -4.54241089187235E-11  7.26837351942214E-02
 cg2d: Sum(rhs),rhsMax =  -4.73797667766007E-11  6.97495774775170E-02
 cg2d: Sum(rhs),rhsMax =  -4.95326002436514E-11  6.68081424622633E-02
 cg2d: Sum(rhs),rhsMax =  -5.18707299335119E-11  6.38593461594495E-02
 cg2d: Sum(rhs),rhsMax =  -5.44637668298265E-11  6.09030281254211E-02
 cg2d: Sum(rhs),rhsMax =  -5.73178171592303E-11  5.79513084417551E-02
 cg2d: Sum(rhs),rhsMax =  -5.74025271760092E-11  5.79367448421848E-02
 cg2d: Sum(rhs),rhsMax =  -5.75108849432127E-11  5.79218842774386E-02
 cg2d: Sum(rhs),rhsMax =  -5.76306780075697E-11  5.79068164083459E-02
 cg2d: Sum(rhs),rhsMax =  -5.77456971129209E-11  5.78915963200267E-02
 cg2d: Sum(rhs),rhsMax =  -5.78502801218406E-11  5.78765874215762E-02
 cg2d: Sum(rhs),rhsMax =  -5.79546965973066E-11  5.78622630467337E-02
 cg2d: Sum(rhs),rhsMax =  -5.80818171336261E-11  5.78490154171619E-02
 cg2d: Sum(rhs),rhsMax =  -5.82048298447546E-11  5.78371560695198E-02
 cg2d: Sum(rhs),rhsMax =  -5.83440518120426E-11  5.78270005004573E-02
 cg2d: Sum(rhs),rhsMax =  -5.84659543001464E-11  5.78189016851570E-02
 cg2d: Sum(rhs),rhsMax =  -5.85868298319525E-11  5.78171419239101E-02
 cg2d: Sum(rhs),rhsMax =  -5.87205700730564E-11  5.78134916803037E-02
 cg2d: Sum(rhs),rhsMax =  -5.88427778724920E-11  5.78137464892638E-02
 cg2d: Sum(rhs),rhsMax =  -5.89761486174956E-11  5.78176576463408E-02
 cg2d: Sum(rhs),rhsMax =  -5.90876098049975E-11  5.78255439898100E-02
 cg2d: Sum(rhs),rhsMax =  -5.92154936196465E-11  5.78378453132408E-02
 cg2d: Sum(rhs),rhsMax =  -5.92435822621695E-11  5.78549484134930E-02
 cg2d: Sum(rhs),rhsMax =  -5.92539073362985E-11  5.78770866957002E-02
 cg2d: Sum(rhs),rhsMax =  -5.92656479447840E-11  5.79043729562643E-02
 cg2d: Sum(rhs),rhsMax =  -5.92841886692952E-11  5.79375633031616E-02
 cg2d: Sum(rhs),rhsMax =  -5.92687010581017E-11  5.79944792347343E-02
 cg2d: Sum(rhs),rhsMax =  -5.91579008002441E-11  5.81326279151380E-02
 cg2d: Sum(rhs),rhsMax =  -5.90663074007125E-11  5.82663833345745E-02
 cg2d: Sum(rhs),rhsMax =  -5.89835957853779E-11  5.83951986491758E-02
 cg2d: Sum(rhs),rhsMax =  -5.88894488728897E-11  5.85188513377237E-02
 cg2d: Sum(rhs),rhsMax =  -5.87857540423897E-11  5.86373771764860E-02
 cg2d: Sum(rhs),rhsMax =  -5.87007109587034E-11  5.87508864172745E-02
 cg2d: Sum(rhs),rhsMax =  -5.86599657736997E-11  5.88594780591014E-02
 cg2d: Sum(rhs),rhsMax =  -5.85973491951108E-11  5.89632739462519E-02
 cg2d: Sum(rhs),rhsMax =  -5.85120840668196E-11  5.90624323478500E-02
 cg2d: Sum(rhs),rhsMax =  -5.84982062790118E-11  5.91571611774767E-02
 cg2d: Sum(rhs),rhsMax =  -5.82393022696692E-11  5.94594729717823E-02
 cg2d: Sum(rhs),rhsMax =  -5.54074564007578E-11  6.25458815005344E-02
 cg2d: Sum(rhs),rhsMax =  -5.28421750800590E-11  6.56073095209107E-02
 cg2d: Sum(rhs),rhsMax =  -5.05466779543440E-11  6.86426840824810E-02
 cg2d: Sum(rhs),rhsMax =  -4.84717821436220E-11  7.16508918659276E-02
 cg2d: Sum(rhs),rhsMax =  -4.66278127220221E-11  7.46307793122249E-02
 cg2d: Sum(rhs),rhsMax =  -4.49493775533938E-11  7.75811527604901E-02
 cg2d: Sum(rhs),rhsMax =  -4.34010605232515E-11  8.05007790098912E-02
 cg2d: Sum(rhs),rhsMax =  -4.20237178389016E-11  8.33883863259909E-02
 cg2d: Sum(rhs),rhsMax =  -4.07074374209060E-11  8.62426657818696E-02
 cg2d: Sum(rhs),rhsMax =  -3.94912991197316E-11  8.90622728742476E-02
 cg2d: Sum(rhs),rhsMax =  -3.83493237166022E-11  9.18458293946504E-02
 cg2d: Sum(rhs),rhsMax =  -3.73190367497500E-11  9.45919255608652E-02
 cg2d: Sum(rhs),rhsMax =  -3.63227226074514E-11  9.72991224133050E-02
 cg2d: Sum(rhs),rhsMax =  -3.54121176826538E-11  9.99659544729970E-02
 cg2d: Sum(rhs),rhsMax =  -3.45746764551791E-11  1.02590932631881E-01
 cg2d: Sum(rhs),rhsMax =  -3.37657679594372E-11  1.05172547268987E-01
 cg2d: Sum(rhs),rhsMax =  -3.30506733092761E-11  1.07709271570556E-01
 cg2d: Sum(rhs),rhsMax =  -3.23399085289111E-11  1.10199564999035E-01
 cg2d: Sum(rhs),rhsMax =  -3.16674464428957E-11  1.12641876913931E-01
 cg2d: Sum(rhs),rhsMax =  -3.08529868320306E-11  1.15815944804472E-01
 cg2d: Sum(rhs),rhsMax =  -2.99628100108862E-11  1.19355901626823E-01
 cg2d: Sum(rhs),rhsMax =  -2.91644486338782E-11  1.22872670784800E-01
 cg2d: Sum(rhs),rhsMax =  -2.84324785937429E-11  1.26363133420315E-01
 cg2d: Sum(rhs),rhsMax =  -2.77331491105315E-11  1.29824105824203E-01
 cg2d: Sum(rhs),rhsMax =  -2.70993227857730E-11  1.33252346196743E-01
 cg2d: Sum(rhs),rhsMax =  -2.64588351228667E-11  1.36644561656638E-01
 cg2d: Sum(rhs),rhsMax =  -2.58929544472153E-11  1.39997415490530E-01
 cg2d: Sum(rhs),rhsMax =  -2.53269627492614E-11  1.43307534630851E-01
 cg2d: Sum(rhs),rhsMax =  -2.48070453068294E-11  1.46571517345666E-01
 cg2d: Sum(rhs),rhsMax =  -2.43318698522899E-11  1.49785941120151E-01
 cg2d: Sum(rhs),rhsMax =  -2.38250530415485E-11  1.52947370705611E-01
 cg2d: Sum(rhs),rhsMax =  -2.33758568057851E-11  1.56052366308502E-01
 cg2d: Sum(rhs),rhsMax =  -2.29340990642868E-11  1.59097491889475E-01
 cg2d: Sum(rhs),rhsMax =  -2.26015872684115E-11  1.62079323540547E-01
 cg2d: Sum(rhs),rhsMax =  -2.21641593967092E-11  1.64994457912365E-01
 cg2d: Sum(rhs),rhsMax =  -2.18027818021937E-11  1.67839520659758E-01
 cg2d: Sum(rhs),rhsMax =  -2.14945838905578E-11  1.70611174870257E-01
 cg2d: Sum(rhs),rhsMax =  -2.11780593062372E-11  1.73306129449280E-01
 cg2d: Sum(rhs),rhsMax =  -2.08983941263341E-11  1.75921147432409E-01
 cg2d: Sum(rhs),rhsMax =  -2.06201722363630E-11  1.78453054177545E-01
 cg2d: Sum(rhs),rhsMax =  -2.03428385248117E-11  1.80898745397392E-01
 cg2d: Sum(rhs),rhsMax =  -2.00924832327587E-11  1.83255195006097E-01
 cg2d: Sum(rhs),rhsMax =  -1.98631111558711E-11  1.85519462819862E-01
 cg2d: Sum(rhs),rhsMax =  -1.96258564955087E-11  1.87688702006538E-01
 cg2d: Sum(rhs),rhsMax =  -1.94503302353155E-11  1.89760166307072E-01
 cg2d: Sum(rhs),rhsMax =  -1.92527105369322E-11  1.91731216935821E-01
 cg2d: Sum(rhs),rhsMax =  -1.90832905033744E-11  1.93599329172990E-01
 cg2d: Sum(rhs),rhsMax =  -1.89326332389328E-11  1.95362098628370E-01
 cg2d: Sum(rhs),rhsMax =  -1.87382331873209E-11  1.97017247162169E-01
 cg2d: Sum(rhs),rhsMax =  -1.86424209402958E-11  1.98562628446463E-01
 cg2d: Sum(rhs),rhsMax =  -1.85195192514698E-11  1.99996233151997E-01
 cg2d: Sum(rhs),rhsMax =  -1.83700832323552E-11  2.01316193751966E-01
 cg2d: Sum(rhs),rhsMax =  -1.82441839413627E-11  2.02520788984444E-01
 cg2d: Sum(rhs),rhsMax =  -1.81636927720774E-11  2.03608447811326E-01
 cg2d: Sum(rhs),rhsMax =  -1.80544468264543E-11  2.04577753207705E-01
 cg2d: Sum(rhs),rhsMax =  -1.79782855269650E-11  2.05427445304521E-01
 cg2d: Sum(rhs),rhsMax =  -1.79130044131171E-11  2.06156423799408E-01
 cg2d: Sum(rhs),rhsMax =  -1.78624892654966E-11  2.06763750074421E-01
 cg2d: Sum(rhs),rhsMax =  -1.78521641913676E-11  2.07248648994295E-01
 cg2d: Sum(rhs),rhsMax =  -1.78185244337214E-11  2.07610510318889E-01
 cg2d: Sum(rhs),rhsMax =  -1.78276282625234E-11  2.07848889630747E-01
 cg2d: Sum(rhs),rhsMax =  -1.78306258646899E-11  2.07963508741063E-01
 cg2d: Sum(rhs),rhsMax =  -1.78583814403055E-11  2.07954255545061E-01
 cg2d: Sum(rhs),rhsMax =  -1.78692616259468E-11  2.07821183312293E-01
 cg2d: Sum(rhs),rhsMax =  -1.79289916246717E-11  2.07564509276159E-01
 cg2d: Sum(rhs),rhsMax =  -1.79712911219099E-11  2.07184612908011E-01
 cg2d: Sum(rhs),rhsMax =  -1.80588877185528E-11  2.06682033688378E-01
 cg2d: Sum(rhs),rhsMax =  -1.81630266382626E-11  2.06057467927916E-01
 cg2d: Sum(rhs),rhsMax =  -1.82925896652364E-11  2.05311765147782E-01
 cg2d: Sum(rhs),rhsMax =  -1.84389170598820E-11  2.04445924260193E-01
 cg2d: Sum(rhs),rhsMax =  -1.85569337673996E-11  2.03461089640696E-01
 cg2d: Sum(rhs),rhsMax =  -1.86994864037615E-11  2.02358547207318E-01
 cg2d: Sum(rhs),rhsMax =  -1.88220550256801E-11  2.01139718946332E-01
 cg2d: Sum(rhs),rhsMax =  -1.89698257102577E-11  1.99806157261893E-01
 cg2d: Sum(rhs),rhsMax =  -1.90671922695174E-11  1.98359539429231E-01
 cg2d: Sum(rhs),rhsMax =  -1.91573423791169E-11  1.96801662138675E-01
 cg2d: Sum(rhs),rhsMax =  -1.92988958147566E-11  1.95134434394709E-01
 cg2d: Sum(rhs),rhsMax =  -1.94171345668792E-11  1.93359871898040E-01
 cg2d: Sum(rhs),rhsMax =  -1.95450322593160E-11  1.91480089738627E-01
 cg2d: Sum(rhs),rhsMax =  -1.96659355466977E-11  1.89497295464362E-01
 cg2d: Sum(rhs),rhsMax =  -1.98091543168744E-11  1.87413782881323E-01
 cg2d: Sum(rhs),rhsMax =  -1.99257277344600E-11  1.85231925716052E-01
 cg2d: Sum(rhs),rhsMax =  -2.01169081393004E-11  1.82954170914541E-01
 cg2d: Sum(rhs),rhsMax =  -2.02937666671232E-11  1.80583032114809E-01
 cg2d: Sum(rhs),rhsMax =  -2.04999350827961E-11  1.78121082851499E-01
 cg2d: Sum(rhs),rhsMax =  -2.07796002626992E-11  1.75570949958195E-01
 cg2d: Sum(rhs),rhsMax =  -2.10436112979551E-11  1.72935306942540E-01
 cg2d: Sum(rhs),rhsMax =  -2.12904138763292E-11  1.70216867358705E-01
 cg2d: Sum(rhs),rhsMax =  -2.16315854117966E-11  1.67418378102949E-01
 cg2d: Sum(rhs),rhsMax =  -2.19627649400422E-11  1.64542612855729E-01
 cg2d: Sum(rhs),rhsMax =  -2.23063789661637E-11  1.61592365767603E-01
 cg2d: Sum(rhs),rhsMax =  -2.26360041821749E-11  1.58570445120234E-01
 cg2d: Sum(rhs),rhsMax =  -2.30265806422381E-11  1.55479666747744E-01
 cg2d: Sum(rhs),rhsMax =  -2.34521291275769E-11  1.52322847576724E-01
 cg2d: Sum(rhs),rhsMax =  -2.38786768136379E-11  1.49102800564897E-01
 cg2d: Sum(rhs),rhsMax =  -2.43257636256544E-11  1.45822329039622E-01
 cg2d: Sum(rhs),rhsMax =  -2.48226994514766E-11  1.42484220821716E-01
 cg2d: Sum(rhs),rhsMax =  -2.53198573219038E-11  1.39091243736525E-01
 cg2d: Sum(rhs),rhsMax =  -2.58980614731286E-11  1.35646140880039E-01
 cg2d: Sum(rhs),rhsMax =  -2.65372168684053E-11  1.32151625630648E-01
 cg2d: Sum(rhs),rhsMax =  -2.72275535451172E-11  1.28610377258569E-01
 cg2d: Sum(rhs),rhsMax =  -2.79892775623125E-11  1.25025036942668E-01
 cg2d: Sum(rhs),rhsMax =  -2.87769807982841E-11  1.21398204114787E-01
 cg2d: Sum(rhs),rhsMax =  -2.96115354458948E-11  1.17732433126967E-01
 cg2d: Sum(rhs),rhsMax =  -3.05191427685259E-11  1.14030230168552E-01
 cg2d: Sum(rhs),rhsMax =  -3.15070192158373E-11  1.10294050584553E-01
 cg2d: Sum(rhs),rhsMax =  -3.25760529662489E-11  1.06526296557409E-01
 cg2d: Sum(rhs),rhsMax =  -3.37176953024709E-11  1.02729315247929E-01
 cg2d: Sum(rhs),rhsMax =  -3.49436035662620E-11  9.89053970542815E-02
 cg2d: Sum(rhs),rhsMax =  -3.63159502470012E-11  9.50567739387073E-02
 cg2d: Sum(rhs),rhsMax =  -3.77712305876798E-11  9.11856183506079E-02
 cg2d: Sum(rhs),rhsMax =  -3.93806098841765E-11  8.72940427292713E-02
 cg2d: Sum(rhs),rhsMax =  -4.11560785451570E-11  8.33840991106145E-02
 cg2d: Sum(rhs),rhsMax =  -4.31237268117002E-11  7.94577787524858E-02
 cg2d: Sum(rhs),rhsMax =  -4.52844428622257E-11  7.55170122646814E-02
 cg2d: Sum(rhs),rhsMax =  -4.77415884603261E-11  7.15636701524746E-02
 cg2d: Sum(rhs),rhsMax =  -4.83028061992741E-11  7.07119499629264E-02
 cg2d: Sum(rhs),rhsMax =  -4.82550666092152E-11  7.07350047007345E-02
 cg2d: Sum(rhs),rhsMax =  -4.81978901234470E-11  7.07545228850554E-02
 cg2d: Sum(rhs),rhsMax =  -4.81601425406097E-11  7.07709948713827E-02
 cg2d: Sum(rhs),rhsMax =  -4.81097384152918E-11  7.07849678928968E-02
 cg2d: Sum(rhs),rhsMax =  -4.80764317245530E-11  7.07993497466513E-02
 cg2d: Sum(rhs),rhsMax =  -4.80324668927778E-11  7.08141794810011E-02
 cg2d: Sum(rhs),rhsMax =  -4.79840611689042E-11  7.08293434312478E-02
 cg2d: Sum(rhs),rhsMax =  -4.79513095896777E-11  7.08447672590726E-02
 cg2d: Sum(rhs),rhsMax =  -4.78976303064371E-11  7.08604207884421E-02
 cg2d: Sum(rhs),rhsMax =  -4.78491690714122E-11  7.08762225871837E-02
 cg2d: Sum(rhs),rhsMax =  -4.78084238864085E-11  7.08920321363632E-02
 cg2d: Sum(rhs),rhsMax =  -4.77674011456486E-11  7.09076342406407E-02
 cg2d: Sum(rhs),rhsMax =  -4.77176631541454E-11  7.09227916043348E-02
 cg2d: Sum(rhs),rhsMax =  -4.76597927789868E-11  7.09372324102217E-02
 cg2d: Sum(rhs),rhsMax =  -4.76146344574602E-11  7.09506727318110E-02
 cg2d: Sum(rhs),rhsMax =  -4.75526840126861E-11  7.09628272653944E-02
 cg2d: Sum(rhs),rhsMax =  -4.75090938811817E-11  7.09733408354033E-02
 cg2d: Sum(rhs),rhsMax =  -4.74654412996323E-11  7.09818989397793E-02
 cg2d: Sum(rhs),rhsMax =  -4.74239016112765E-11  7.09882022282159E-02
 cg2d: Sum(rhs),rhsMax =  -4.73841209325254E-11  7.09920045175684E-02
 cg2d: Sum(rhs),rhsMax =  -4.73406244760888E-11  7.09930719976419E-02
 cg2d: Sum(rhs),rhsMax =  -4.72909628124185E-11  7.09912152984140E-02
 cg2d: Sum(rhs),rhsMax =  -4.72530625739154E-11  7.09862833998122E-02
 cg2d: Sum(rhs),rhsMax =  -4.72399341866492E-11  7.09781336238310E-02
 cg2d: Sum(rhs),rhsMax =  -4.71782890532069E-11  7.09666357069680E-02
 cg2d: Sum(rhs),rhsMax =  -4.71771510746066E-11  7.09516959431200E-02
 cg2d: Sum(rhs),rhsMax =  -4.71573891047683E-11  7.09332657624719E-02
 cg2d: Sum(rhs),rhsMax =  -4.71409578040038E-11  7.09112631433100E-02
 cg2d: Sum(rhs),rhsMax =  -4.71188643658138E-11  7.08855615212839E-02
 cg2d: Sum(rhs),rhsMax =  -4.71309102856310E-11  7.08560160374515E-02
 cg2d: Sum(rhs),rhsMax =  -4.70924410578277E-11  7.08225526513234E-02
 cg2d: Sum(rhs),rhsMax =  -4.70401495533679E-11  7.07851478252474E-02
 cg2d: Sum(rhs),rhsMax =  -4.69714267481436E-11  7.07438812381506E-02
 cg2d: Sum(rhs),rhsMax =  -4.68854954860376E-11  7.06988927688692E-02
 cg2d: Sum(rhs),rhsMax =  -4.68248773088931E-11  7.06503471586317E-02
 cg2d: Sum(rhs),rhsMax =  -4.67593741504402E-11  7.05984817594145E-02
 cg2d: Sum(rhs),rhsMax =  -4.45808945315207E-11  7.38949783785863E-02
 cg2d: Sum(rhs),rhsMax =  -4.25343094079267E-11  7.72814931130787E-02
 cg2d: Sum(rhs),rhsMax =  -4.06944478115179E-11  8.06290309318601E-02
 cg2d: Sum(rhs),rhsMax =  -3.90176779774265E-11  8.39362195597617E-02
 cg2d: Sum(rhs),rhsMax =  -3.74779096645739E-11  8.72016724831519E-02
 cg2d: Sum(rhs),rhsMax =  -3.60762530959846E-11  9.04239903882191E-02
 cg2d: Sum(rhs),rhsMax =  -3.47540884959585E-11  9.36017626787605E-02
 cg2d: Sum(rhs),rhsMax =  -3.36053407323789E-11  9.67335690645172E-02
 cg2d: Sum(rhs),rhsMax =  -3.24195115197767E-11  9.98179812182860E-02
 cg2d: Sum(rhs),rhsMax =  -3.13682413377592E-11  1.02853564506001E-01
 cg2d: Sum(rhs),rhsMax =  -3.03329583672962E-11  1.05838879798645E-01
 cg2d: Sum(rhs),rhsMax =  -2.94088087215982E-11  1.08772485365320E-01
 cg2d: Sum(rhs),rhsMax =  -2.85419465839709E-11  1.11652938849697E-01
 cg2d: Sum(rhs),rhsMax =  -2.77763367861894E-11  1.14478799338127E-01
 cg2d: Sum(rhs),rhsMax =  -2.70510280842018E-11  1.17248629536220E-01
 cg2d: Sum(rhs),rhsMax =  -2.63616906082120E-11  1.19960998065849E-01
 cg2d: Sum(rhs),rhsMax =  -2.57299737072003E-11  1.22614481886646E-01
 cg2d: Sum(rhs),rhsMax =  -2.51638709869439E-11  1.25207668838365E-01
 cg2d: Sum(rhs),rhsMax =  -2.45443665392031E-11  1.27739160294550E-01
 cg2d: Sum(rhs),rhsMax =  -2.41200392991914E-11  1.30207573916981E-01
 cg2d: Sum(rhs),rhsMax =  -2.37051489548890E-11  1.32611546486078E-01
 cg2d: Sum(rhs),rhsMax =  -2.33197905430416E-11  1.34949736835197E-01
 cg2d: Sum(rhs),rhsMax =  -2.29417596031567E-11  1.37220828809214E-01
 cg2d: Sum(rhs),rhsMax =  -2.26089147403741E-11  1.39423534305490E-01
 cg2d: Sum(rhs),rhsMax =  -2.23028262524849E-11  1.41556596380640E-01
 cg2d: Sum(rhs),rhsMax =  -2.19846363336273E-11  1.43618792382644E-01
 cg2d: Sum(rhs),rhsMax =  -2.16987539047864E-11  1.45608937048741E-01
 cg2d: Sum(rhs),rhsMax =  -2.14580575530476E-11  1.47525885543954E-01
 cg2d: Sum(rhs),rhsMax =  -2.12129203092104E-11  1.49368536451667E-01
 cg2d: Sum(rhs),rhsMax =  -2.09906536596804E-11  1.51135834714201E-01
 cg2d: Sum(rhs),rhsMax =  -2.08517647592998E-11  1.52826774510668E-01
 cg2d: Sum(rhs),rhsMax =  -2.07245332006778E-11  1.54440402061555E-01
 cg2d: Sum(rhs),rhsMax =  -2.06301642435847E-11  1.55975818359092E-01
 cg2d: Sum(rhs),rhsMax =  -2.05057082425242E-11  1.57432181706592E-01
 cg2d: Sum(rhs),rhsMax =  -2.04022354566291E-11  1.58808710236054E-01
 cg2d: Sum(rhs),rhsMax =  -2.03012051613882E-11  1.60104684235009E-01
 cg2d: Sum(rhs),rhsMax =  -2.02232675050595E-11  1.61319448323829E-01
 cg2d: Sum(rhs),rhsMax =  -2.01154648493684E-11  1.62452413290786E-01
 cg2d: Sum(rhs),rhsMax =  -2.00715000175933E-11  1.63503057837134E-01
 cg2d: Sum(rhs),rhsMax =  -2.00298666541698E-11  1.64470930272623E-01
 cg2d: Sum(rhs),rhsMax =  -1.99698035885376E-11  1.65355650000158E-01
 cg2d: Sum(rhs),rhsMax =  -1.99535943323781E-11  1.66156908816064E-01
 cg2d: Sum(rhs),rhsMax =  -1.99198435524295E-11  1.66874471993631E-01
 cg2d: Sum(rhs),rhsMax =  -1.98706606724386E-11  1.67508179135578E-01
 cg2d: Sum(rhs),rhsMax =  -1.98518979033224E-11  1.68057944791547E-01
 cg2d: Sum(rhs),rhsMax =  -1.98583371968653E-11  1.68523758853299E-01
 cg2d: Sum(rhs),rhsMax =  -1.98489003011559E-11  1.68905686701212E-01
 cg2d: Sum(rhs),rhsMax =  -1.98593363975874E-11  1.69203869110700E-01
 cg2d: Sum(rhs),rhsMax =  -1.98515648364150E-11  1.69418521934141E-01
 cg2d: Sum(rhs),rhsMax =  -1.98404626061688E-11  1.69549935556590E-01
 cg2d: Sum(rhs),rhsMax =  -1.98860927724809E-11  1.69598473965054E-01
 cg2d: Sum(rhs),rhsMax =  -1.99175120840778E-11  1.69564573899966E-01
 cg2d: Sum(rhs),rhsMax =  -1.99757987928706E-11  1.69448743723121E-01
 cg2d: Sum(rhs),rhsMax =  -2.00252037174664E-11  1.69251561999265E-01
 cg2d: Sum(rhs),rhsMax =  -2.00670591254948E-11  1.68973675467170E-01
 cg2d: Sum(rhs),rhsMax =  -2.00885974521725E-11  1.68615797309651E-01
 cg2d: Sum(rhs),rhsMax =  -2.01401118005151E-11  1.68178705502397E-01
 cg2d: Sum(rhs),rhsMax =  -2.02008409999621E-11  1.67663240209687E-01
 cg2d: Sum(rhs),rhsMax =  -2.02798888793154E-11  1.67070301976918E-01
 cg2d: Sum(rhs),rhsMax =  -2.03561612011072E-11  1.66400849458534E-01
 cg2d: Sum(rhs),rhsMax =  -2.04801731129578E-11  1.65655896577588E-01
 cg2d: Sum(rhs),rhsMax =  -2.06170636118941E-11  1.64836509582496E-01
 cg2d: Sum(rhs),rhsMax =  -2.07563966014845E-11  1.63943803990604E-01
 cg2d: Sum(rhs),rhsMax =  -2.09285921926039E-11  1.62978942147134E-01
 cg2d: Sum(rhs),rhsMax =  -2.10954587132051E-11  1.61943130282727E-01
 cg2d: Sum(rhs),rhsMax =  -2.12886375194898E-11  1.60837614965694E-01
 cg2d: Sum(rhs),rhsMax =  -2.14656070696151E-11  1.59663679998614E-01
 cg2d: Sum(rhs),rhsMax =  -2.17260653911922E-11  1.58422643894022E-01
 cg2d: Sum(rhs),rhsMax =  -2.19584350702462E-11  1.57115856202690E-01
 cg2d: Sum(rhs),rhsMax =  -2.21822560320106E-11  1.55744694032258E-01
 cg2d: Sum(rhs),rhsMax =  -2.25031104861273E-11  1.54310558999006E-01
 cg2d: Sum(rhs),rhsMax =  -2.27703411681546E-11  1.52814873968836E-01
 cg2d: Sum(rhs),rhsMax =  -2.30907515330614E-11  1.51259079882421E-01
 cg2d: Sum(rhs),rhsMax =  -2.34092745188264E-11  1.49644632486780E-01
 cg2d: Sum(rhs),rhsMax =  -2.37641017974966E-11  1.47972998797409E-01
 cg2d: Sum(rhs),rhsMax =  -2.41383579790977E-11  1.46245653526055E-01
 cg2d: Sum(rhs),rhsMax =  -2.45533593457026E-11  1.44464075384671E-01
 cg2d: Sum(rhs),rhsMax =  -2.49240628136249E-11  1.42629743328833E-01
 cg2d: Sum(rhs),rhsMax =  -2.53667087335430E-11  1.40744132784629E-01
 cg2d: Sum(rhs),rhsMax =  -2.58135735009546E-11  1.38808712163681E-01
 cg2d: Sum(rhs),rhsMax =  -2.62884158885868E-11  1.36824939331472E-01
 cg2d: Sum(rhs),rhsMax =  -2.67859068259213E-11  1.34794258101738E-01
 cg2d: Sum(rhs),rhsMax =  -2.73128186734084E-11  1.32718094725754E-01
 cg2d: Sum(rhs),rhsMax =  -2.78215228632916E-11  1.30597854172359E-01
 cg2d: Sum(rhs),rhsMax =  -2.83297829639650E-11  1.28434917874211E-01
 cg2d: Sum(rhs),rhsMax =  -2.88626900157851E-11  1.26230641325489E-01
 cg2d: Sum(rhs),rhsMax =  -2.94098079223204E-11  1.23986351566402E-01
 cg2d: Sum(rhs),rhsMax =  -3.00103275563401E-11  1.21703344195054E-01
 cg2d: Sum(rhs),rhsMax =  -3.06424885465617E-11  1.19382881954543E-01
 cg2d: Sum(rhs),rhsMax =  -3.13095105397565E-11  1.17026193171804E-01
 cg2d: Sum(rhs),rhsMax =  -3.20002913056783E-11  1.14634470154479E-01
 cg2d: Sum(rhs),rhsMax =  -3.27478044681584E-11  1.12208867656855E-01
 cg2d: Sum(rhs),rhsMax =  -3.35924621452932E-11  1.09750501497282E-01
 cg2d: Sum(rhs),rhsMax =  -3.44021477971523E-11  1.07260447242326E-01
 cg2d: Sum(rhs),rhsMax =  -3.53130857888573E-11  1.04739739255870E-01
 cg2d: Sum(rhs),rhsMax =  -3.62516683338754E-11  1.02189369725441E-01
 cg2d: Sum(rhs),rhsMax =  -3.72626374200991E-11  9.96102877671421E-02
 cg2d: Sum(rhs),rhsMax =  -3.83607590137558E-11  9.70033986188078E-02
 cg2d: Sum(rhs),rhsMax =  -3.94997368147187E-11  9.43695629423792E-02
 cg2d: Sum(rhs),rhsMax =  -4.07411882008546E-11  9.17095963331705E-02
 cg2d: Sum(rhs),rhsMax =  -4.20553591951034E-11  8.90242689932790E-02
 cg2d: Sum(rhs),rhsMax =  -4.34662306147970E-11  8.63143052976900E-02
 cg2d: Sum(rhs),rhsMax =  -4.49775772182193E-11  8.35803838183806E-02
 cg2d: Sum(rhs),rhsMax =  -4.66373606400339E-11  8.08231377381410E-02
 cg2d: Sum(rhs),rhsMax =  -4.84238205089582E-11  7.80431555995085E-02
 cg2d: Sum(rhs),rhsMax =  -4.89279727844405E-11  7.74338953737981E-02
 cg2d: Sum(rhs),rhsMax =  -4.90029128386027E-11  7.73928390917818E-02
 cg2d: Sum(rhs),rhsMax =  -4.90641971495620E-11  7.73554817452192E-02
 cg2d: Sum(rhs),rhsMax =  -4.91778839872836E-11  7.73222143823604E-02
 cg2d: Sum(rhs),rhsMax =  -4.92778040594999E-11  7.72933675215296E-02
 cg2d: Sum(rhs),rhsMax =  -4.93592944295074E-11  7.72692920328003E-02
 cg2d: Sum(rhs),rhsMax =  -4.94532192973907E-11  7.72502986282047E-02
 cg2d: Sum(rhs),rhsMax =  -4.95462559868542E-11  7.72366788318923E-02
 cg2d: Sum(rhs),rhsMax =  -4.96205299072017E-11  7.72286963636993E-02
 cg2d: Sum(rhs),rhsMax =  -4.96763186141891E-11  7.72265951319313E-02
 cg2d: Sum(rhs),rhsMax =  -4.97938357213457E-11  7.72305830619401E-02
 cg2d: Sum(rhs),rhsMax =  -4.98588947905887E-11  7.72407687338412E-02
 cg2d: Sum(rhs),rhsMax =  -4.99426056066454E-11  7.72572606634723E-02
 cg2d: Sum(rhs),rhsMax =  -5.00179897500175E-11  7.72802064006426E-02
 cg2d: Sum(rhs),rhsMax =  -5.00761099253566E-11  7.73100289692583E-02
 cg2d: Sum(rhs),rhsMax =  -5.01242103378985E-11  7.73468640602919E-02
 cg2d: Sum(rhs),rhsMax =  -5.01897967630782E-11  7.73905262419716E-02
 cg2d: Sum(rhs),rhsMax =  -5.02469177376952E-11  7.74411702507368E-02
 cg2d: Sum(rhs),rhsMax =  -5.03018737774141E-11  7.74988269619343E-02
 cg2d: Sum(rhs),rhsMax =  -5.03514036021002E-11  7.75632983194352E-02
 cg2d: Sum(rhs),rhsMax =  -5.03993270728476E-11  7.76346277412627E-02
 cg2d: Sum(rhs),rhsMax =  -5.04388683597590E-11  7.77128827500057E-02
 cg2d: Sum(rhs),rhsMax =  -5.04813413293448E-11  7.77979138861612E-02
 cg2d: Sum(rhs),rhsMax =  -5.05047115240131E-11  7.78895142829264E-02
 cg2d: Sum(rhs),rhsMax =  -5.05383790372349E-11  7.79875157077500E-02
 cg2d: Sum(rhs),rhsMax =  -5.05683273033242E-11  7.80917082999892E-02
 cg2d: Sum(rhs),rhsMax =  -5.06100439334745E-11  7.82018799662319E-02
 cg2d: Sum(rhs),rhsMax =  -5.06384933984805E-11  7.83177969678313E-02
 cg2d: Sum(rhs),rhsMax =  -5.06482633610972E-11  7.84391997501139E-02
 cg2d: Sum(rhs),rhsMax =  -5.06613084816365E-11  7.85658009459119E-02
 cg2d: Sum(rhs),rhsMax =  -5.06998332205910E-11  7.86971998644564E-02
 cg2d: Sum(rhs),rhsMax =  -5.07147657202722E-11  7.88330661644101E-02
 cg2d: Sum(rhs),rhsMax =  -5.07157094098432E-11  7.89642940476223E-02
 cg2d: Sum(rhs),rhsMax =  -5.07105468727787E-11  7.91020648460796E-02
 cg2d: Sum(rhs),rhsMax =  -5.07336395116909E-11  7.92400961779113E-02
 cg2d: Sum(rhs),rhsMax =  -5.07174302555313E-11  7.93819463464015E-02
 cg2d: Sum(rhs),rhsMax =  -5.07135444749451E-11  7.95274887872021E-02
 cg2d: Sum(rhs),rhsMax =  -5.06843456093975E-11  7.96755454317779E-02
 cg2d: Sum(rhs),rhsMax =  -5.06911179698477E-11  7.98257076034947E-02
 cg2d: Sum(rhs),rhsMax =  -5.07296427088022E-11  7.99777009007053E-02
 cg2d: Sum(rhs),rhsMax =  -5.06902297914280E-11  8.01312752146457E-02
 cg2d: Sum(rhs),rhsMax =  -5.06902297914280E-11  8.02861361206314E-02
 cg2d: Sum(rhs),rhsMax =  -5.06754638252005E-11  8.04419834027954E-02
 cg2d: Sum(rhs),rhsMax =  -5.06630293273247E-11  8.05985435131278E-02
 cg2d: Sum(rhs),rhsMax =  -5.06585884352262E-11  8.07555071378225E-02
 cg2d: Sum(rhs),rhsMax =  -5.06171771164077E-11  8.09125715548376E-02
 cg2d: Sum(rhs),rhsMax =  -5.05971931019644E-11  8.10693363897690E-02
 cg2d: Sum(rhs),rhsMax =  -5.05975261688718E-11  8.12259239870522E-02
 cg2d: Sum(rhs),rhsMax =  -5.06019670609703E-11  8.13817080749034E-02
 cg2d: Sum(rhs),rhsMax =  -4.95847807258087E-11  8.31738735748493E-02
 cg2d: Sum(rhs),rhsMax =  -4.82189843609149E-11  8.56722230509799E-02
 cg2d: Sum(rhs),rhsMax =  -4.68589611557491E-11  8.82739817659460E-02
 cg2d: Sum(rhs),rhsMax =  -4.52503590153697E-11  9.15832267894359E-02
 cg2d: Sum(rhs),rhsMax =  -4.37089253679801E-11  9.48743351210130E-02
 cg2d: Sum(rhs),rhsMax =  -4.23510115865611E-11  9.81453103186630E-02
 cg2d: Sum(rhs),rhsMax =  -4.10398381944788E-11  1.01394103755984E-01
 cg2d: Sum(rhs),rhsMax =  -3.98109323285212E-11  1.04618617218836E-01
 cg2d: Sum(rhs),rhsMax =  -3.86765064419592E-11  1.07816705925617E-01
 cg2d: Sum(rhs),rhsMax =  -3.75971476174186E-11  1.10986181955868E-01
 cg2d: Sum(rhs),rhsMax =  -3.66537911133946E-11  1.14124818062392E-01
 cg2d: Sum(rhs),rhsMax =  -3.56930041078840E-11  1.17230351829375E-01
 cg2d: Sum(rhs),rhsMax =  -3.48211459666459E-11  1.20300490126938E-01
 cg2d: Sum(rhs),rhsMax =  -3.40428796263836E-11  1.23332913800122E-01
 cg2d: Sum(rhs),rhsMax =  -3.33263416862906E-11  1.26325282526477E-01
 cg2d: Sum(rhs),rhsMax =  -3.26433324815412E-11  1.29275239776259E-01
 cg2d: Sum(rhs),rhsMax =  -3.19979598373266E-11  1.32180417817170E-01
 cg2d: Sum(rhs),rhsMax =  -3.13841175270113E-11  1.35038442713550E-01
 cg2d: Sum(rhs),rhsMax =  -3.07996961268486E-11  1.37846939278202E-01
 cg2d: Sum(rhs),rhsMax =  -3.02778913052748E-11  1.40603535940125E-01
 cg2d: Sum(rhs),rhsMax =  -2.97410984728685E-11  1.43305869498978E-01
 cg2d: Sum(rhs),rhsMax =  -2.92547097657803E-11  1.45951589747860E-01
 cg2d: Sum(rhs),rhsMax =  -2.88263857228799E-11  1.48538363958616E-01
 cg2d: Sum(rhs),rhsMax =  -2.83431056402605E-11  1.51063881236004E-01
 cg2d: Sum(rhs),rhsMax =  -2.79388734369945E-11  1.53525856747207E-01
 cg2d: Sum(rhs),rhsMax =  -2.75450773301600E-11  1.55922035880008E-01
 cg2d: Sum(rhs),rhsMax =  -2.72027955716680E-11  1.58250198333072E-01
 cg2d: Sum(rhs),rhsMax =  -2.68151056914689E-11  1.60508162151875E-01
 cg2d: Sum(rhs),rhsMax =  -2.64651633941071E-11  1.62693787751574E-01
 cg2d: Sum(rhs),rhsMax =  -2.61787258537538E-11  1.64804981962994E-01
 cg2d: Sum(rhs),rhsMax =  -2.58817411946666E-11  1.66839702093289E-01
 cg2d: Sum(rhs),rhsMax =  -2.56549226307357E-11  1.68795959988443E-01
 cg2d: Sum(rhs),rhsMax =  -2.54123388998551E-11  1.70671826065374E-01
 cg2d: Sum(rhs),rhsMax =  -2.51625387193144E-11  1.72465433337179E-01
 cg2d: Sum(rhs),rhsMax =  -2.49830156562325E-11  1.74174981394064E-01
 cg2d: Sum(rhs),rhsMax =  -2.47569742484188E-11  1.75798740312864E-01
 cg2d: Sum(rhs),rhsMax =  -2.45296005729756E-11  1.77335054462232E-01
 cg2d: Sum(rhs),rhsMax =  -2.43752795725527E-11  1.78782346174396E-01
 cg2d: Sum(rhs),rhsMax =  -2.42108555426057E-11  1.80139119252328E-01
 cg2d: Sum(rhs),rhsMax =  -2.40848452293108E-11  1.81403962308036E-01
 cg2d: Sum(rhs),rhsMax =  -2.39903652499152E-11  1.82575551790568E-01
 cg2d: Sum(rhs),rhsMax =  -2.38598030222192E-11  1.83652654948668E-01
 cg2d: Sum(rhs),rhsMax =  -2.37179165196721E-11  1.84634132484199E-01
 cg2d: Sum(rhs),rhsMax =  -2.36057839941850E-11  1.85518940875129E-01
 cg2d: Sum(rhs),rhsMax =  -2.35433894602011E-11  1.86306134337421E-01
 cg2d: Sum(rhs),rhsMax =  -2.34219310613071E-11  1.86994866702643E-01
 cg2d: Sum(rhs),rhsMax =  -2.33404406912996E-11  1.87584393099835E-01
 cg2d: Sum(rhs),rhsMax =  -2.33003616401106E-11  1.88074071487041E-01
 cg2d: Sum(rhs),rhsMax =  -2.32327490579110E-11  1.88463363982626E-01
 cg2d: Sum(rhs),rhsMax =  -2.32267538535780E-11  1.88751837964875E-01
 cg2d: Sum(rhs),rhsMax =  -2.32064367722273E-11  1.88939166922116E-01
 cg2d: Sum(rhs),rhsMax =  -2.32418528867129E-11  1.89025131041930E-01
 cg2d: Sum(rhs),rhsMax =  -2.32519559162370E-11  1.89009617493422E-01
 cg2d: Sum(rhs),rhsMax =  -2.32880381645373E-11  1.88892620339222E-01
 cg2d: Sum(rhs),rhsMax =  -2.33734143151310E-11  1.88674240393181E-01
 cg2d: Sum(rhs),rhsMax =  -2.34715580305078E-11  1.88354684651254E-01
 cg2d: Sum(rhs),rhsMax =  -2.35630404077369E-11  1.87934265246388E-01
 cg2d: Sum(rhs),rhsMax =  -2.37341257758317E-11  1.87413397461537E-01
 cg2d: Sum(rhs),rhsMax =  -2.39600561613429E-11  1.86792598568537E-01
 cg2d: Sum(rhs),rhsMax =  -2.40966135933718E-11  1.86072485313764E-01
 cg2d: Sum(rhs),rhsMax =  -2.41242581466850E-11  1.85253772191939E-01
 cg2d: Sum(rhs),rhsMax =  -2.41247022358948E-11  1.84337268693254E-01
 cg2d: Sum(rhs),rhsMax =  -2.41846542792246E-11  1.83323875987676E-01
 cg2d: Sum(rhs),rhsMax =  -2.42814657269719E-11  1.82214583296627E-01
 cg2d: Sum(rhs),rhsMax =  -2.44176900920934E-11  1.81010464777640E-01
 cg2d: Sum(rhs),rhsMax =  -2.45473641413696E-11  1.79712675973503E-01
 cg2d: Sum(rhs),rhsMax =  -2.46661580050045E-11  1.78322449427504E-01
 cg2d: Sum(rhs),rhsMax =  -2.47911691175773E-11  1.76841091287967E-01
 cg2d: Sum(rhs),rhsMax =  -2.49654741324434E-11  1.75269977293820E-01
 cg2d: Sum(rhs),rhsMax =  -2.50942600033000E-11  1.73610548734879E-01
 cg2d: Sum(rhs),rhsMax =  -2.52728948879621E-11  1.71864309144239E-01
 cg2d: Sum(rhs),rhsMax =  -2.54405385646805E-11  1.70032821115626E-01
 cg2d: Sum(rhs),rhsMax =  -2.56322740810333E-11  1.68117703229180E-01
 cg2d: Sum(rhs),rhsMax =  -2.59350318998486E-11  1.66120626855656E-01
 cg2d: Sum(rhs),rhsMax =  -2.61808352775006E-11  1.64043313122323E-01
 cg2d: Sum(rhs),rhsMax =  -2.64913646574882E-11  1.61887530126936E-01
 cg2d: Sum(rhs),rhsMax =  -2.68128852454197E-11  1.59655090164737E-01
 cg2d: Sum(rhs),rhsMax =  -2.71277444952034E-11  1.57347846821487E-01
 cg2d: Sum(rhs),rhsMax =  -2.74847922199228E-11  1.54967691980900E-01
 cg2d: Sum(rhs),rhsMax =  -2.78663758734865E-11  1.52516553019177E-01
 cg2d: Sum(rhs),rhsMax =  -2.82454060140935E-11  1.49996389789838E-01
 cg2d: Sum(rhs),rhsMax =  -2.87111445729238E-11  1.47409191432884E-01
 cg2d: Sum(rhs),rhsMax =  -2.91534574259344E-11  1.44756972812138E-01
 cg2d: Sum(rhs),rhsMax =  -2.96450641812385E-11  1.42041770768877E-01
 cg2d: Sum(rhs),rhsMax =  -3.01584313078251E-11  1.39265641386662E-01
 cg2d: Sum(rhs),rhsMax =  -3.06964453855585E-11  1.36430656791225E-01
 cg2d: Sum(rhs),rhsMax =  -3.12571080129942E-11  1.33538900876387E-01
 cg2d: Sum(rhs),rhsMax =  -3.18892690032158E-11  1.30592466323101E-01
 cg2d: Sum(rhs),rhsMax =  -3.25320881344737E-11  1.27593451514181E-01
 cg2d: Sum(rhs),rhsMax =  -3.32546212788998E-11  1.24543957183974E-01
 cg2d: Sum(rhs),rhsMax =  -3.40513173213708E-11  1.21446082896846E-01
 cg2d: Sum(rhs),rhsMax =  -3.49065221172395E-11  1.18301923932713E-01
 cg2d: Sum(rhs),rhsMax =  -3.58139073952657E-11  1.15113568566146E-01
 cg2d: Sum(rhs),rhsMax =  -3.68248764814894E-11  1.11883095338184E-01
 cg2d: Sum(rhs),rhsMax =  -3.79050124621472E-11  1.08612570526069E-01
 cg2d: Sum(rhs),rhsMax =  -3.90418808393633E-11  1.05304045819245E-01
 cg2d: Sum(rhs),rhsMax =  -4.02803346233327E-11  1.01959556181064E-01
 cg2d: Sum(rhs),rhsMax =  -4.15589784807935E-11  9.85811179388468E-02
 cg2d: Sum(rhs),rhsMax =  -4.30436797316247E-11  9.51707270902286E-02
 cg2d: Sum(rhs),rhsMax =  -4.46402914633381E-11  9.17303573506769E-02
 cg2d: Sum(rhs),rhsMax =  -4.62581084548219E-11  8.82619586204642E-02
 cg2d: Sum(rhs),rhsMax =  -4.80667727842388E-11  8.47721234794605E-02
 cg2d: Sum(rhs),rhsMax =  -4.80487871712398E-11  8.46832065953966E-02
 cg2d: Sum(rhs),rhsMax =  -4.80145923020814E-11  8.45891408485137E-02
 cg2d: Sum(rhs),rhsMax =  -4.79772888084540E-11  8.44925675951253E-02
 cg2d: Sum(rhs),rhsMax =  -4.79198902780809E-11  8.44817020060006E-02
 cg2d: Sum(rhs),rhsMax =  -4.79227768579449E-11  8.43472860723912E-02
 cg2d: Sum(rhs),rhsMax =  -4.79087880478346E-11  8.42296468417335E-02
(PID.TID 0000.0001)      cg2d_init_res =   2.11222703396862E-01
(PID.TID 0000.0001)      cg2d_iters(min,last) =      -1      39
(PID.TID 0000.0001)      cg2d_last_res =   8.39956739261799E-14
(PID.TID 0000.0001) // =======================================================
(PID.TID 0000.0001) // Begin MONITOR dynamic field statistics
(PID.TID 0000.0001) // =======================================================
(PID.TID 0000.0001) %MON time_tsnumber                =                  1920
(PID.TID 0000.0001) %MON time_secondsf                =   2.8800000000000E+04
(PID.TID 0000.0001) %MON dynstat_eta_max              =   1.0977888405445E-02
(PID.TID 0000.0001) %MON dynstat_eta_min              =  -1.7913603247684E-02
(PID.TID 0000.0001) %MON dynstat_eta_mean             =   8.8867904717660E-15
(PID.TID 0000.0001) %MON dynstat_eta_sd               =   7.8050423778181E-03
(PID.TID 0000.0001) %MON dynstat_eta_del2             =   5.7970635548043E-05
(PID.TID 0000.0001) %MON dynstat_uvel_max             =   1.2325746875142E+00
(PID.TID 0000.0001) %MON dynstat_uvel_min             =  -1.4369291954299E-01
(PID.TID 0000.0001) %MON dynstat_uvel_mean            =   4.5702202788323E-01
(PID.TID 0000.0001) %MON dynstat_uvel_sd              =   4.0091589833806E-02
(PID.TID 0000.0001) %MON dynstat_uvel_del2            =   5.9464132983063E-04
(PID.TID 0000.0001) %MON dynstat_vvel_max             =   0.0000000000000E+00
(PID.TID 0000.0001) %MON dynstat_vvel_min             =   0.0000000000000E+00
(PID.TID 0000.0001) %MON dynstat_vvel_mean            =   0.0000000000000E+00
(PID.TID 0000.0001) %MON dynstat_vvel_sd              =   0.0000000000000E+00
(PID.TID 0000.0001) %MON dynstat_vvel_del2            =   0.0000000000000E+00
(PID.TID 0000.0001) %MON dynstat_wvel_max             =   3.3320758718156E-02
(PID.TID 0000.0001) %MON dynstat_wvel_min             =  -6.1764579733676E-02
(PID.TID 0000.0001) %MON dynstat_wvel_mean            =   3.5017604800860E-20
(PID.TID 0000.0001) %MON dynstat_wvel_sd              =   2.9266499483605E-03
(PID.TID 0000.0001) %MON dynstat_wvel_del2            =   8.3989847459755E-05
(PID.TID 0000.0001) %MON dynstat_theta_max            =   1.5000000000003E+01
(PID.TID 0000.0001) %MON dynstat_theta_min            =   9.9999999999953E+00
(PID.TID 0000.0001) %MON dynstat_theta_mean           =   1.1004813665837E+01
(PID.TID 0000.0001) %MON dynstat_theta_sd             =   1.9323343386221E+00
(PID.TID 0000.0001) %MON dynstat_theta_del2           =   4.8796448920592E-04
(PID.TID 0000.0001) %MON dynstat_salt_max             =   3.5000000000000E+01
(PID.TID 0000.0001) %MON dynstat_salt_min             =   3.5000000000000E+01
(PID.TID 0000.0001) %MON dynstat_salt_mean            =   3.5000000000000E+01
(PID.TID 0000.0001) %MON dynstat_salt_sd              =   4.0500935938326E-13
(PID.TID 0000.0001) %MON dynstat_salt_del2            =   0.0000000000000E+00
(PID.TID 0000.0001) %MON dynstat_sst_max              =   1.5000000000003E+01
(PID.TID 0000.0001) %MON dynstat_sst_min              =   1.5000000000000E+01
(PID.TID 0000.0001) %MON dynstat_sst_mean             =   1.5000000000003E+01
(PID.TID 0000.0001) %MON dynstat_sst_sd               =   1.2538658198684E-12
(PID.TID 0000.0001) %MON dynstat_sst_del2             =   5.0270184819920E-15
(PID.TID 0000.0001) %MON dynstat_sss_max              =   3.5000000000000E+01
(PID.TID 0000.0001) %MON dynstat_sss_min              =   3.5000000000000E+01
(PID.TID 0000.0001) %MON dynstat_sss_mean             =   3.5000000000000E+01
(PID.TID 0000.0001) %MON dynstat_sss_sd               =   4.2632564145606E-14
(PID.TID 0000.0001) %MON dynstat_sss_del2             =   0.0000000000000E+00
(PID.TID 0000.0001) %MON forcing_qnet_max             =   0.0000000000000E+00
(PID.TID 0000.0001) %MON forcing_qnet_min             =   0.0000000000000E+00
(PID.TID 0000.0001) %MON forcing_qnet_mean            =   0.0000000000000E+00
(PID.TID 0000.0001) %MON forcing_qnet_sd              =   0.0000000000000E+00
(PID.TID 0000.0001) %MON forcing_qnet_del2            =   0.0000000000000E+00
(PID.TID 0000.0001) %MON forcing_qsw_max              =   0.0000000000000E+00
(PID.TID 0000.0001) %MON forcing_qsw_min              =   0.0000000000000E+00
(PID.TID 0000.0001) %MON forcing_qsw_mean             =   0.0000000000000E+00
(PID.TID 0000.0001) %MON forcing_qsw_sd               =   0.0000000000000E+00
(PID.TID 0000.0001) %MON forcing_qsw_del2             =   0.0000000000000E+00
(PID.TID 0000.0001) %MON forcing_empmr_max            =   0.0000000000000E+00
(PID.TID 0000.0001) %MON forcing_empmr_min            =   0.0000000000000E+00
(PID.TID 0000.0001) %MON forcing_empmr_mean           =   0.0000000000000E+00
(PID.TID 0000.0001) %MON forcing_empmr_sd             =   0.0000000000000E+00
(PID.TID 0000.0001) %MON forcing_empmr_del2           =   0.0000000000000E+00
(PID.TID 0000.0001) %MON forcing_fu_max               =   0.0000000000000E+00
(PID.TID 0000.0001) %MON forcing_fu_min               =   0.0000000000000E+00
(PID.TID 0000.0001) %MON forcing_fu_mean              =   0.0000000000000E+00
(PID.TID 0000.0001) %MON forcing_fu_sd                =   0.0000000000000E+00
(PID.TID 0000.0001) %MON forcing_fu_del2              =   0.0000000000000E+00
(PID.TID 0000.0001) %MON forcing_fv_max               =   0.0000000000000E+00
(PID.TID 0000.0001) %MON forcing_fv_min               =   0.0000000000000E+00
(PID.TID 0000.0001) %MON forcing_fv_mean              =   0.0000000000000E+00
(PID.TID 0000.0001) %MON forcing_fv_sd                =   0.0000000000000E+00
(PID.TID 0000.0001) %MON forcing_fv_del2              =   0.0000000000000E+00
(PID.TID 0000.0001) %MON advcfl_uvel_max              =   6.6885029651128E-02
(PID.TID 0000.0001) %MON advcfl_vvel_max              =   0.0000000000000E+00
(PID.TID 0000.0001) %MON advcfl_wvel_max              =   3.1813233372859E-01
(PID.TID 0000.0001) %MON advcfl_W_hf_max              =   3.2159342397199E-01
(PID.TID 0000.0001) %MON pe_b_mean                    =   1.5098513507651E-06
(PID.TID 0000.0001) %MON ke_max                       =   3.8376911632227E-01
(PID.TID 0000.0001) %MON ke_mean                      =   1.0526188553731E-01
(PID.TID 0000.0001) %MON ke_vol                       =   9.6656886657870E+10
(PID.TID 0000.0001) %MON vort_r_min                   =   0.0000000000000E+00
(PID.TID 0000.0001) %MON vort_r_max                   =   0.0000000000000E+00
(PID.TID 0000.0001) %MON vort_a_mean                  =   0.0000000000000E+00
(PID.TID 0000.0001) %MON vort_a_sd                    =   0.0000000000000E+00
(PID.TID 0000.0001) %MON vort_p_mean                  =   0.0000000000000E+00
(PID.TID 0000.0001) %MON vort_p_sd                    =   0.0000000000000E+00
(PID.TID 0000.0001) %MON surfExpan_theta_mean         =   1.2733618033526E-17
(PID.TID 0000.0001) %MON surfExpan_salt_mean          =   1.4804367266237E-18
(PID.TID 0000.0001) // =======================================================
(PID.TID 0000.0001) // End MONITOR dynamic field statistics
(PID.TID 0000.0001) // =======================================================
(PID.TID 0000.0001) // =======================================================
(PID.TID 0000.0001) // Begin OBCS MONITOR field statistics
(PID.TID 0000.0001) // =======================================================
(PID.TID 0000.0001) %MON obc_E_uVel_max               =   4.4822851314926E-01
(PID.TID 0000.0001) %MON obc_E_uVel_min               =   4.4822851314926E-01
(PID.TID 0000.0001) %MON obc_E_uVel_mean              =   4.4822851314926E-01
(PID.TID 0000.0001) %MON obc_E_uVel_sd                =  -1.9428902930940E-16
(PID.TID 0000.0001) %MON obc_E_uVel_Int               =   4.4822851314926E+05
(PID.TID 0000.0001) %MON obc_W_uVel_max               =   4.4822851314926E-01
(PID.TID 0000.0001) %MON obc_W_uVel_min               =   4.4822851314926E-01
(PID.TID 0000.0001) %MON obc_W_uVel_mean              =   4.4822851314926E-01
(PID.TID 0000.0001) %MON obc_W_uVel_sd                =  -1.9428902930940E-16
(PID.TID 0000.0001) %MON obc_W_uVel_Int               =   4.4822851314926E+05
(PID.TID 0000.0001) // =======================================================
(PID.TID 0000.0001) // End OBCS MONITOR field statistics
(PID.TID 0000.0001) // =======================================================
 cg2d: Sum(rhs),rhsMax =  -4.78879158549717E-11  8.41129848209893E-02
 cg2d: Sum(rhs),rhsMax =  -4.78843631412929E-11  8.39919959216318E-02
 cg2d: Sum(rhs),rhsMax =  -4.78855843866199E-11  8.38669460309850E-02
 cg2d: Sum(rhs),rhsMax =  -4.78700412642752E-11  8.37383463922394E-02
 cg2d: Sum(rhs),rhsMax =  -4.78744821563737E-11  8.36063991874682E-02
 cg2d: Sum(rhs),rhsMax =  -4.78719841545683E-11  8.34714956055951E-02
 cg2d: Sum(rhs),rhsMax =  -4.78649897495131E-11  8.33339556887432E-02
 cg2d: Sum(rhs),rhsMax =  -4.78820316729411E-11  8.31936639567677E-02
 cg2d: Sum(rhs),rhsMax =  -4.78744266452225E-11  8.30512781980268E-02
 cg2d: Sum(rhs),rhsMax =  -4.78620476584979E-11  8.29070364501677E-02
 cg2d: Sum(rhs),rhsMax =  -4.78641570822447E-11  8.27611962848688E-02
 cg2d: Sum(rhs),rhsMax =  -4.78625750144346E-11  8.26140490528655E-02
 cg2d: Sum(rhs),rhsMax =  -4.78486694710512E-11  8.24651137514720E-02
 cg2d: Sum(rhs),rhsMax =  -4.78457828911871E-11  8.23149360489295E-02
 cg2d: Sum(rhs),rhsMax =  -4.78521111624275E-11  8.21608610636740E-02
 cg2d: Sum(rhs),rhsMax =  -4.78665024283842E-11  8.20035904996723E-02
 cg2d: Sum(rhs),rhsMax =  -4.78711237317242E-11  8.18438971535099E-02
 cg2d: Sum(rhs),rhsMax =  -4.78767407663394E-11  8.16824684963361E-02
 cg2d: Sum(rhs),rhsMax =  -4.78801529674167E-11  8.15205995885982E-02
 cg2d: Sum(rhs),rhsMax =  -4.78790548874564E-11  8.13589757360811E-02
 cg2d: Sum(rhs),rhsMax =  -4.78943135151511E-11  8.11976904011100E-02
 cg2d: Sum(rhs),rhsMax =  -4.78911216239553E-11  8.10373084131073E-02
 cg2d: Sum(rhs),rhsMax =  -4.78934392145192E-11  8.08794505856960E-02
 cg2d: Sum(rhs),rhsMax =  -4.79104811379472E-11  8.07245860796922E-02
 cg2d: Sum(rhs),rhsMax =  -4.78858619423761E-11  8.05724415219637E-02
 cg2d: Sum(rhs),rhsMax =  -4.78976025508615E-11  8.04248604294222E-02
 cg2d: Sum(rhs),rhsMax =  -4.78894701672061E-11  8.02808242719008E-02
 cg2d: Sum(rhs),rhsMax =  -4.78965200834125E-11  8.01422944543039E-02
 cg2d: Sum(rhs),rhsMax =  -4.78976303064371E-11  8.00092799199377E-02
 cg2d: Sum(rhs),rhsMax =  -4.78967421280174E-11  7.98816194304521E-02
 cg2d: Sum(rhs),rhsMax =  -4.78795336711357E-11  7.97595856510765E-02
 cg2d: Sum(rhs),rhsMax =  -4.78755368682471E-11  7.96433255096374E-02
 cg2d: Sum(rhs),rhsMax =  -4.78381778634684E-11  7.95330211390995E-02
 cg2d: Sum(rhs),rhsMax =  -4.78392880864931E-11  7.94278651444600E-02
 cg2d: Sum(rhs),rhsMax =  -4.77987649460943E-11  7.93278761914178E-02
 cg2d: Sum(rhs),rhsMax =  -4.77841100021692E-11  7.92332248898230E-02
 cg2d: Sum(rhs),rhsMax =  -4.77701211920589E-11  7.91442544555230E-02
 cg2d: Sum(rhs),rhsMax =  -4.77100581264267E-11  7.90613936030787E-02
 cg2d: Sum(rhs),rhsMax =  -4.76833017515332E-11  7.89847144434135E-02
 cg2d: Sum(rhs),rhsMax =  -4.76634287593924E-11  7.89144982972398E-02
 cg2d: Sum(rhs),rhsMax =  -4.75196548777035E-11  7.89765976998896E-02
 cg2d: Sum(rhs),rhsMax =  -4.57823778887700E-11  8.18945621684192E-02
 cg2d: Sum(rhs),rhsMax =  -4.41259251360293E-11  8.47685289524767E-02
 cg2d: Sum(rhs),rhsMax =  -4.26757518212639E-11  8.75974097978075E-02
 cg2d: Sum(rhs),rhsMax =  -4.12960776685622E-11  9.03801243386636E-02
 cg2d: Sum(rhs),rhsMax =  -3.99473787382476E-11  9.31156001847252E-02
 cg2d: Sum(rhs),rhsMax =  -3.87158083370309E-11  9.58027733116824E-02
 cg2d: Sum(rhs),rhsMax =  -3.75574016331370E-11  9.84405887039377E-02
 cg2d: Sum(rhs),rhsMax =  -3.64888119719353E-11  1.01028001181403E-01
 cg2d: Sum(rhs),rhsMax =  -3.55150353570366E-11  1.03563976343879E-01
 cg2d: Sum(rhs),rhsMax =  -3.45927730904805E-11  1.06047491568984E-01
 cg2d: Sum(rhs),rhsMax =  -3.37596617328018E-11  1.08477537008517E-01
 cg2d: Sum(rhs),rhsMax =  -3.29721805414351E-11  1.10853116537568E-01
 cg2d: Sum(rhs),rhsMax =  -3.22378790329481E-11  1.13173248622919E-01
 cg2d: Sum(rhs),rhsMax =  -3.15704129505434E-11  1.15436967096928E-01
 cg2d: Sum(rhs),rhsMax =  -3.09146042098973E-11  1.17643321847109E-01
 cg2d: Sum(rhs),rhsMax =  -3.03417291291908E-11  1.19791379463175E-01
 cg2d: Sum(rhs),rhsMax =  -2.97628588441512E-11  1.21880223922334E-01
 cg2d: Sum(rhs),rhsMax =  -2.92329493944976E-11  1.23908957319070E-01
 cg2d: Sum(rhs),rhsMax =  -2.87218027139602E-11  1.25876700804805E-01
 cg2d: Sum(rhs),rhsMax =  -2.83114642840587E-11  1.27782595776089E-01
 cg2d: Sum(rhs),rhsMax =  -2.79053447016508E-11  1.29625805326475E-01
 cg2d: Sum(rhs),rhsMax =  -2.75489631107462E-11  1.31405515967599E-01
 cg2d: Sum(rhs),rhsMax =  -2.72106781551429E-11  1.33120939616216E-01
 cg2d: Sum(rhs),rhsMax =  -2.68979283291060E-11  1.34771315848532E-01
 cg2d: Sum(rhs),rhsMax =  -2.66860977760075E-11  1.36355914380639E-01
 cg2d: Sum(rhs),rhsMax =  -2.64349653278373E-11  1.37874037715370E-01
 cg2d: Sum(rhs),rhsMax =  -2.62538879525209E-11  1.39325023859250E-01
 cg2d: Sum(rhs),rhsMax =  -2.60703680865504E-11  1.40708248948424E-01
 cg2d: Sum(rhs),rhsMax =  -2.58778554140804E-11  1.42023129807247E-01
 cg2d: Sum(rhs),rhsMax =  -2.57348586885087E-11  1.43269126377828E-01
 cg2d: Sum(rhs),rhsMax =  -2.55565568707539E-11  1.44445743703134E-01
 cg2d: Sum(rhs),rhsMax =  -2.54462007021061E-11  1.45552533650795E-01
 cg2d: Sum(rhs),rhsMax =  -2.53299603514279E-11  1.46589096202858E-01
 cg2d: Sum(rhs),rhsMax =  -2.52090570640462E-11  1.47555080499456E-01
 cg2d: Sum(rhs),rhsMax =  -2.51291210062732E-11  1.48450185632622E-01
 cg2d: Sum(rhs),rhsMax =  -2.50353071606924E-11  1.49274161078548E-01
 cg2d: Sum(rhs),rhsMax =  -2.49533727014750E-11  1.50026806867451E-01
 cg2d: Sum(rhs),rhsMax =  -2.49392728690623E-11  1.50707973520056E-01
 cg2d: Sum(rhs),rhsMax =  -2.48614462350361E-11  1.51317561802517E-01
 cg2d: Sum(rhs),rhsMax =  -2.48530085400489E-11  1.51855522302892E-01
 cg2d: Sum(rhs),rhsMax =  -2.48019382809161E-11  1.52321854888550E-01
 cg2d: Sum(rhs),rhsMax =  -2.47841747125221E-11  1.52716608077150E-01
 cg2d: Sum(rhs),rhsMax =  -2.47915021844847E-11  1.53039878337439E-01
 cg2d: Sum(rhs),rhsMax =  -2.48074893960393E-11  1.53291809327893E-01
 cg2d: Sum(rhs),rhsMax =  -2.48613352127336E-11  1.53472591035285E-01
 cg2d: Sum(rhs),rhsMax =  -2.49036347099718E-11  1.53582458828799E-01
 cg2d: Sum(rhs),rhsMax =  -2.49312792632850E-11  1.53621692628674E-01
 cg2d: Sum(rhs),rhsMax =  -2.49704701360542E-11  1.53590615938740E-01
 cg2d: Sum(rhs),rhsMax =  -2.49920084627320E-11  1.53489594771194E-01
 cg2d: Sum(rhs),rhsMax =  -2.50175435922984E-11  1.53319036392335E-01
 cg2d: Sum(rhs),rhsMax =  -2.50515164168519E-11  1.53079387794762E-01
 cg2d: Sum(rhs),rhsMax =  -2.51028087205896E-11  1.52771134901681E-01
 cg2d: Sum(rhs),rhsMax =  -2.51841880682946E-11  1.52394801498126E-01
 cg2d: Sum(rhs),rhsMax =  -2.53063126010034E-11  1.51950947648129E-01
 cg2d: Sum(rhs),rhsMax =  -2.54123388998551E-11  1.51440168852604E-01
 cg2d: Sum(rhs),rhsMax =  -2.55375720570328E-11  1.50863094798206E-01
 cg2d: Sum(rhs),rhsMax =  -2.57546206583470E-11  1.50220388060320E-01
 cg2d: Sum(rhs),rhsMax =  -2.59144927738930E-11  1.49512742816333E-01
 cg2d: Sum(rhs),rhsMax =  -2.60647059491248E-11  1.48740883596251E-01
 cg2d: Sum(rhs),rhsMax =  -2.62538879525209E-11  1.47905564427821E-01
 cg2d: Sum(rhs),rhsMax =  -2.64849253639454E-11  1.47007567130235E-01
 cg2d: Sum(rhs),rhsMax =  -2.66995314746055E-11  1.46047699520330E-01
 cg2d: Sum(rhs),rhsMax =  -2.69887445725203E-11  1.45026793706751E-01
 cg2d: Sum(rhs),rhsMax =  -2.72588618344116E-11  1.43945705035231E-01
 cg2d: Sum(rhs),rhsMax =  -2.75446332409501E-11  1.42805309319382E-01
 cg2d: Sum(rhs),rhsMax =  -2.78552736432403E-11  1.41606500192019E-01
 cg2d: Sum(rhs),rhsMax =  -2.81487055886487E-11  1.40350186597798E-01
 cg2d: Sum(rhs),rhsMax =  -2.85135248745405E-11  1.39037289906168E-01
 cg2d: Sum(rhs),rhsMax =  -2.88929991043574E-11  1.37668740988431E-01
 cg2d: Sum(rhs),rhsMax =  -2.92504909182867E-11  1.36245477276195E-01
 cg2d: Sum(rhs),rhsMax =  -2.96710434000147E-11  1.34768439826275E-01
 cg2d: Sum(rhs),rhsMax =  -3.01356717358203E-11  1.33238570280258E-01
 cg2d: Sum(rhs),rhsMax =  -3.05930836219659E-11  1.31656808010519E-01
 cg2d: Sum(rhs),rhsMax =  -3.10630410282897E-11  1.30024087629494E-01
 cg2d: Sum(rhs),rhsMax =  -3.15053538813004E-11  1.28341337174387E-01
 cg2d: Sum(rhs),rhsMax =  -3.19976267704192E-11  1.26609476693782E-01
 cg2d: Sum(rhs),rhsMax =  -3.25074411833270E-11  1.24829417263472E-01
 cg2d: Sum(rhs),rhsMax =  -3.30371285883757E-11  1.23002060429660E-01
 cg2d: Sum(rhs),rhsMax =  -3.35745875545967E-11  1.21128297794461E-01
 cg2d: Sum(rhs),rhsMax =  -3.41934258685228E-11  1.19209011118234E-01
 cg2d: Sum(rhs),rhsMax =  -3.48319151299847E-11  1.17245073324086E-01
 cg2d: Sum(rhs),rhsMax =  -3.54790641310387E-11  1.15237349273560E-01
 cg2d: Sum(rhs),rhsMax =  -3.61461971465360E-11  1.13186696315742E-01
 cg2d: Sum(rhs),rhsMax =  -3.68918229298743E-11  1.11093964142801E-01
 cg2d: Sum(rhs),rhsMax =  -3.76577657945631E-11  1.08959995572146E-01
 cg2d: Sum(rhs),rhsMax =  -3.85020904047906E-11  1.06785626989574E-01
 cg2d: Sum(rhs),rhsMax =  -3.94169141770817E-11  1.04571688352817E-01
 cg2d: Sum(rhs),rhsMax =  -4.03493904954644E-11  1.02319002882660E-01
 cg2d: Sum(rhs),rhsMax =  -4.13663547860210E-11  1.00028386603302E-01
 cg2d: Sum(rhs),rhsMax =  -4.24262847076307E-11  9.77006478259632E-02
 cg2d: Sum(rhs),rhsMax =  -4.35627089956370E-11  9.53365864699076E-02
 cg2d: Sum(rhs),rhsMax =  -4.47587522600656E-11  9.29369936793206E-02
 cg2d: Sum(rhs),rhsMax =  -4.60950166925045E-11  9.05026515977249E-02
 cg2d: Sum(rhs),rhsMax =  -4.74604799904910E-11  8.80343332370908E-02
 cg2d: Sum(rhs),rhsMax =  -4.89088769484169E-11  8.55328024853371E-02
 cg2d: Sum(rhs),rhsMax =  -5.04886132901561E-11  8.29988144486149E-02
 cg2d: Sum(rhs),rhsMax =  -5.22091259114177E-11  8.04331156525915E-02
 cg2d: Sum(rhs),rhsMax =  -5.36579669585535E-11  7.84447718236270E-02
 cg2d: Sum(rhs),rhsMax =  -5.37546673839984E-11  7.84436871215810E-02
 cg2d: Sum(rhs),rhsMax =  -5.38133981820010E-11  7.84478679663368E-02
 cg2d: Sum(rhs),rhsMax =  -5.38236122338276E-11  7.84570403406266E-02
 cg2d: Sum(rhs),rhsMax =  -5.38989963771996E-11  7.84713099253847E-02
 cg2d: Sum(rhs),rhsMax =  -5.39631672680230E-11  7.84919781454182E-02
 cg2d: Sum(rhs),rhsMax =  -5.40046896091440E-11  7.85170290128301E-02
 cg2d: Sum(rhs),rhsMax =  -5.40636424517515E-11  7.85473665646143E-02
 cg2d: Sum(rhs),rhsMax =  -5.41204858706124E-11  7.85828635776322E-02
 cg2d: Sum(rhs),rhsMax =  -5.41797717801273E-11  7.86235000396947E-02
 cg2d: Sum(rhs),rhsMax =  -5.42322853291921E-11  7.86691780865633E-02
 cg2d: Sum(rhs),rhsMax =  -5.42589306817831E-11  7.87196117154168E-02
 cg2d: Sum(rhs),rhsMax =  -5.43212697046158E-11  7.87745399262941E-02
 cg2d: Sum(rhs),rhsMax =  -5.43309841560813E-11  7.88335967421680E-02
 cg2d: Sum(rhs),rhsMax =  -5.43786682349889E-11  7.88965072992159E-02
 cg2d: Sum(rhs),rhsMax =  -5.44162492843725E-11  7.89636503981066E-02
 cg2d: Sum(rhs),rhsMax =  -5.44442824157443E-11  7.90336578096909E-02
 cg2d: Sum(rhs),rhsMax =  -5.44701783677937E-11  7.91067888629543E-02
 cg2d: Sum(rhs),rhsMax =  -5.45241352067904E-11  7.91825844614408E-02
 cg2d: Sum(rhs),rhsMax =  -5.45431755316628E-11  7.92606037404786E-02
 cg2d: Sum(rhs),rhsMax =  -5.45611195112983E-11  7.93402852521431E-02
 cg2d: Sum(rhs),rhsMax =  -5.46021700076338E-11  7.94223485780242E-02
 cg2d: Sum(rhs),rhsMax =  -5.46251169297740E-11  7.95058976597705E-02
 cg2d: Sum(rhs),rhsMax =  -5.46624863428935E-11  7.95906619009012E-02
 cg2d: Sum(rhs),rhsMax =  -5.46924554256645E-11  7.96793528398716E-02
 cg2d: Sum(rhs),rhsMax =  -5.47270007089651E-11  7.97687401894566E-02
 cg2d: Sum(rhs),rhsMax =  -5.47421274976756E-11  7.98564383532659E-02
 cg2d: Sum(rhs),rhsMax =  -5.47576428644447E-11  7.99432827210025E-02
 cg2d: Sum(rhs),rhsMax =  -5.47675516049395E-11  8.00316597820501E-02
 cg2d: Sum(rhs),rhsMax =  -5.48020517854297E-11  8.01227459013671E-02
 cg2d: Sum(rhs),rhsMax =  -5.48292522495331E-11  8.02162412285819E-02
 cg2d: Sum(rhs),rhsMax =  -5.48703860125954E-11  8.03119858429420E-02
 cg2d: Sum(rhs),rhsMax =  -5.48842082892520E-11  8.04098409050191E-02
 cg2d: Sum(rhs),rhsMax =  -5.48985301662697E-11  8.05093016422392E-02
 cg2d: Sum(rhs),rhsMax =  -5.49277845429685E-11  8.06104428681054E-02
 cg2d: Sum(rhs),rhsMax =  -5.49474354905044E-11  8.07136411392529E-02
 cg2d: Sum(rhs),rhsMax =  -5.49432166430108E-11  8.08191717082759E-02
 cg2d: Sum(rhs),rhsMax =  -5.49660317261669E-11  8.09260485730249E-02
 cg2d: Sum(rhs),rhsMax =  -5.49876810751471E-11  8.10350308604959E-02
 cg2d: Sum(rhs),rhsMax =  -5.50005596622327E-11  8.11457164066251E-02
 cg2d: Sum(rhs),rhsMax =  -5.50028911305844E-11  8.12580565196409E-02
 cg2d: Sum(rhs),rhsMax =  -5.50294254608730E-11  8.13709707481899E-02
 cg2d: Sum(rhs),rhsMax =  -5.50117729147814E-11  8.14857667042897E-02
 cg2d: Sum(rhs),rhsMax =  -5.50113288255716E-11  8.16021710780491E-02
 cg2d: Sum(rhs),rhsMax =  -5.50175460745095E-11  8.17200271790816E-02
 cg2d: Sum(rhs),rhsMax =  -5.50177681191144E-11  8.18393725916106E-02
 cg2d: Sum(rhs),rhsMax =  -5.50071099780780E-11  8.19604739445231E-02
 cg2d: Sum(rhs),rhsMax =  -5.49833512053510E-11  8.20856843206893E-02
 cg2d: Sum(rhs),rhsMax =  -5.49984502384859E-11  8.22096096427263E-02
 cg2d: Sum(rhs),rhsMax =  -5.49653655923521E-11  8.23266240379836E-02
 cg2d: Sum(rhs),rhsMax =  -5.49731371535245E-11  8.24373951488443E-02
 cg2d: Sum(rhs),rhsMax =  -5.49557066520379E-11  8.25436593325062E-02
 cg2d: Sum(rhs),rhsMax =  -5.49883472089618E-11  8.26463416701212E-02
 cg2d: Sum(rhs),rhsMax =  -5.40308908725251E-11  8.41585401200782E-02
 cg2d: Sum(rhs),rhsMax =  -5.21939158559803E-11  8.72012053692382E-02
 cg2d: Sum(rhs),rhsMax =  -5.05449015975046E-11  9.02192327641206E-02
 cg2d: Sum(rhs),rhsMax =  -4.89550622262414E-11  9.32108832161434E-02
 cg2d: Sum(rhs),rhsMax =  -4.75045558445686E-11  9.61743992080761E-02
 cg2d: Sum(rhs),rhsMax =  -4.61699567466667E-11  9.91080083357190E-02
 cg2d: Sum(rhs),rhsMax =  -4.48754366999538E-11  1.02009926810951E-01
 cg2d: Sum(rhs),rhsMax =  -4.36797265024325E-11  1.04878362815978E-01
 cg2d: Sum(rhs),rhsMax =  -4.26152446664219E-11  1.07711519622734E-01
 cg2d: Sum(rhs),rhsMax =  -4.15448786483807E-11  1.10507598423253E-01
 cg2d: Sum(rhs),rhsMax =  -4.05869782227342E-11  1.13264800848493E-01
 cg2d: Sum(rhs),rhsMax =  -3.97509802851914E-11  1.15981331180595E-01
 cg2d: Sum(rhs),rhsMax =  -3.89325238714378E-11  1.18655398288984E-01
 cg2d: Sum(rhs),rhsMax =  -3.81829012852108E-11  1.21285217342486E-01
 cg2d: Sum(rhs),rhsMax =  -3.74817954451601E-11  1.23869011371012E-01
 cg2d: Sum(rhs),rhsMax =  -3.68004515749476E-11  1.26405012762524E-01
 cg2d: Sum(rhs),rhsMax =  -3.61428664774621E-11  1.28891464782437E-01
 cg2d: Sum(rhs),rhsMax =  -3.55512286276394E-11  1.31326623190604E-01
 cg2d: Sum(rhs),rhsMax =  -3.49750228778589E-11  1.33708758011589E-01
 cg2d: Sum(rhs),rhsMax =  -3.44628769965993E-11  1.36036155489733E-01
 cg2d: Sum(rhs),rhsMax =  -3.39427375095624E-11  1.38307120236528E-01
 cg2d: Sum(rhs),rhsMax =  -3.34364758103334E-11  1.40519977550780E-01
 cg2d: Sum(rhs),rhsMax =  -3.30151461724881E-11  1.42673075911957E-01
 cg2d: Sum(rhs),rhsMax =  -3.25643956244903E-11  1.44764789593720E-01
 cg2d: Sum(rhs),rhsMax =  -3.21799253910626E-11  1.46793521335752E-01
 cg2d: Sum(rhs),rhsMax =  -3.17986748044063E-11  1.48757705099504E-01
 cg2d: Sum(rhs),rhsMax =  -3.14487325070445E-11  1.50655808810867E-01
 cg2d: Sum(rhs),rhsMax =  -3.10634851174996E-11  1.52486337139431E-01
 cg2d: Sum(rhs),rhsMax =  -3.07713854397207E-11  1.54247834199435E-01
 cg2d: Sum(rhs),rhsMax =  -3.04696268216276E-11  1.55938886187013E-01
 cg2d: Sum(rhs),rhsMax =  -3.02351477188267E-11  1.57558123978626E-01
 cg2d: Sum(rhs),rhsMax =  -2.99978930584643E-11  1.59104225697522E-01
 cg2d: Sum(rhs),rhsMax =  -2.97808444571501E-11  1.60575919260342E-01
 cg2d: Sum(rhs),rhsMax =  -2.95591329191325E-11  1.61971984911876E-01
 cg2d: Sum(rhs),rhsMax =  -2.93814972351925E-11  1.63291257755030E-01
 cg2d: Sum(rhs),rhsMax =  -2.91752177972171E-11  1.64532630283494E-01
 cg2d: Sum(rhs),rhsMax =  -2.89823720578397E-11  1.65695054848420E-01
 cg2d: Sum(rhs),rhsMax =  -2.88691293093279E-11  1.66777546175464E-01
 cg2d: Sum(rhs),rhsMax =  -2.87200263571208E-11  1.67779183751066E-01
 cg2d: Sum(rhs),rhsMax =  -2.85593770854575E-11  1.68699114147915E-01
 cg2d: Sum(rhs),rhsMax =  -2.84795520499870E-11  1.69536552895802E-01
 cg2d: Sum(rhs),rhsMax =  -2.83835177583569E-11  1.70290786294785E-01
 cg2d: Sum(rhs),rhsMax =  -2.82921464034303E-11  1.70961173016833E-01
 cg2d: Sum(rhs),rhsMax =  -2.82256440442552E-11  1.71547145405177E-01
 cg2d: Sum(rhs),rhsMax =  -2.81124012957434E-11  1.72048210417985E-01
 cg2d: Sum(rhs),rhsMax =  -2.80706569100175E-11  1.72463950152247E-01
 cg2d: Sum(rhs),rhsMax =  -2.80300227473163E-11  1.72794021919324E-01
 cg2d: Sum(rhs),rhsMax =  -2.80084844206385E-11  1.73038157874803E-01
 cg2d: Sum(rhs),rhsMax =  -2.79934964098061E-11  1.73196164232773E-01
 cg2d: Sum(rhs),rhsMax =  -2.80049317069597E-11  1.73267920042497E-01
 cg2d: Sum(rhs),rhsMax =  -2.80511169847841E-11  1.73253375703115E-01
 cg2d: Sum(rhs),rhsMax =  -2.80990786194479E-11  1.73152551378489E-01
 cg2d: Sum(rhs),rhsMax =  -2.81783485434062E-11  1.72965535218236E-01
 cg2d: Sum(rhs),rhsMax =  -2.82820433739062E-11  1.72692481485169E-01
 cg2d: Sum(rhs),rhsMax =  -2.84016143936583E-11  1.72333608352371E-01
 cg2d: Sum(rhs),rhsMax =  -2.83865153605234E-11  1.71889196282609E-01
 cg2d: Sum(rhs),rhsMax =  -2.84293699692739E-11  1.71359586904656E-01
 cg2d: Sum(rhs),rhsMax =  -2.84141599138366E-11  1.70745181528757E-01
 cg2d: Sum(rhs),rhsMax =  -2.85018675327819E-11  1.70046440596388E-01
 cg2d: Sum(rhs),rhsMax =  -2.86141110805715E-11  1.69263883165495E-01
 cg2d: Sum(rhs),rhsMax =  -2.86805024174441E-11  1.68398086554547E-01
 cg2d: Sum(rhs),rhsMax =  -2.88171708717755E-11  1.67449686092864E-01
 cg2d: Sum(rhs),rhsMax =  -2.89193113900410E-11  1.66419375796116E-01
 cg2d: Sum(rhs),rhsMax =  -2.90498736177369E-11  1.65307908768698E-01
 cg2d: Sum(rhs),rhsMax =  -2.91694446374891E-11  1.64116097140331E-01
 cg2d: Sum(rhs),rhsMax =  -2.93575164178606E-11  1.62844812701652E-01
 cg2d: Sum(rhs),rhsMax =  -2.94961832736362E-11  1.61494987583492E-01
 cg2d: Sum(rhs),rhsMax =  -2.96719315784344E-11  1.60067614137668E-01
 cg2d: Sum(rhs),rhsMax =  -2.98677749199783E-11  1.58563744832626E-01
 cg2d: Sum(rhs),rhsMax =  -3.00621749715901E-11  1.56984491898087E-01
 cg2d: Sum(rhs),rhsMax =  -3.02609048929980E-11  1.55331027077933E-01
 cg2d: Sum(rhs),rhsMax =  -3.05728775629177E-11  1.53604580250045E-01
 cg2d: Sum(rhs),rhsMax =  -3.08958414407812E-11  1.51806437589172E-01
 cg2d: Sum(rhs),rhsMax =  -3.12315728834278E-11  1.49937939304732E-01
 cg2d: Sum(rhs),rhsMax =  -3.15821813146044E-11  1.48000476889211E-01
 cg2d: Sum(rhs),rhsMax =  -3.19527737602243E-11  1.45995489607237E-01
 cg2d: Sum(rhs),rhsMax =  -3.23659987699898E-11  1.43924460899898E-01
 cg2d: Sum(rhs),rhsMax =  -3.27703419955583E-11  1.41788914324438E-01
 cg2d: Sum(rhs),rhsMax =  -3.32209815212536E-11  1.39590409173166E-01
 cg2d: Sum(rhs),rhsMax =  -3.36829453218002E-11  1.37330535942041E-01
 cg2d: Sum(rhs),rhsMax =  -3.42120776153365E-11  1.35010911631359E-01
 cg2d: Sum(rhs),rhsMax =  -3.47302187009291E-11  1.32633175016863E-01
 cg2d: Sum(rhs),rhsMax =  -3.52785578527914E-11  1.30198983245748E-01
 cg2d: Sum(rhs),rhsMax =  -3.59066110178219E-11  1.27710008407339E-01
 cg2d: Sum(rhs),rhsMax =  -3.65284469339144E-11  1.25167933883442E-01
 cg2d: Sum(rhs),rhsMax =  -3.72115671609663E-11  1.22574451169725E-01
 cg2d: Sum(rhs),rhsMax =  -3.79661857508040E-11  1.19931257924825E-01
 cg2d: Sum(rhs),rhsMax =  -3.87708753990523E-11  1.17240056077420E-01
 cg2d: Sum(rhs),rhsMax =  -3.96417343395683E-11  1.14502550086960E-01
 cg2d: Sum(rhs),rhsMax =  -4.05848687989874E-11  1.11720445372644E-01
 cg2d: Sum(rhs),rhsMax =  -4.16048306917105E-11  1.08895447074668E-01
 cg2d: Sum(rhs),rhsMax =  -4.26590984758946E-11  1.06029259150871E-01
 cg2d: Sum(rhs),rhsMax =  -4.38349356812751E-11  1.03123583534474E-01
 cg2d: Sum(rhs),rhsMax =  -4.50499637594248E-11  1.00180119283312E-01
 cg2d: Sum(rhs),rhsMax =  -4.63988847343444E-11  9.72005616841525E-02
 cg2d: Sum(rhs),rhsMax =  -4.78291850569690E-11  9.41866013056305E-02
 cg2d: Sum(rhs),rhsMax =  -4.93763918640866E-11  9.11399232471907E-02
 cg2d: Sum(rhs),rhsMax =  -5.10389508434628E-11  8.80622058261393E-02
 cg2d: Sum(rhs),rhsMax =  -5.28164179058876E-11  8.49551195333069E-02
 cg2d: Sum(rhs),rhsMax =  -5.44622125175920E-11  8.22915235665107E-02
 cg2d: Sum(rhs),rhsMax =  -5.44482237074817E-11  8.22117827962492E-02
 cg2d: Sum(rhs),rhsMax =  -5.44200240426562E-11  8.21324328543352E-02
 cg2d: Sum(rhs),rhsMax =  -5.44263523138966E-11  8.20537817157888E-02
 cg2d: Sum(rhs),rhsMax =  -5.44321254736246E-11  8.19756634803317E-02
 cg2d: Sum(rhs),rhsMax =  -5.43979306044662E-11  8.18976725557031E-02
 cg2d: Sum(rhs),rhsMax =  -5.43383116280438E-11  8.18196612995465E-02
 cg2d: Sum(rhs),rhsMax =  -5.43253220186557E-11  8.17416295354114E-02
 cg2d: Sum(rhs),rhsMax =  -5.42909051048923E-11  8.16637286324533E-02
 cg2d: Sum(rhs),rhsMax =  -5.42622613508570E-11  8.15855682111955E-02
 cg2d: Sum(rhs),rhsMax =  -5.42448863605216E-11  8.15071014507224E-02
 cg2d: Sum(rhs),rhsMax =  -5.42028644190395E-11  8.14285552790534E-02
 cg2d: Sum(rhs),rhsMax =  -5.41913180995834E-11  8.13499879685526E-02
 cg2d: Sum(rhs),rhsMax =  -5.41673927934028E-11  8.12747639096199E-02
 cg2d: Sum(rhs),rhsMax =  -5.41385269947625E-11  8.11996085226062E-02
 cg2d: Sum(rhs),rhsMax =  -5.41179878688069E-11  8.11219978300020E-02
 cg2d: Sum(rhs),rhsMax =  -5.40882338917470E-11  8.10428717113283E-02
 cg2d: Sum(rhs),rhsMax =  -5.40699707229919E-11  8.09636072997346E-02
 cg2d: Sum(rhs),rhsMax =  -5.40529010439883E-11  8.08845633668484E-02
 cg2d: Sum(rhs),rhsMax =  -5.40186229081030E-11  8.08056065405647E-02
 cg2d: Sum(rhs),rhsMax =  -5.39945310684686E-11  8.07265358335328E-02
 cg2d: Sum(rhs),rhsMax =  -5.39554512180018E-11  8.06467896195739E-02
 cg2d: Sum(rhs),rhsMax =  -5.39237682284366E-11  8.05671961623534E-02
 cg2d: Sum(rhs),rhsMax =  -5.39147615441493E-11  8.04871790114278E-02
 cg2d: Sum(rhs),rhsMax =  -5.38930358673362E-11  8.04066850341452E-02
 cg2d: Sum(rhs),rhsMax =  -5.38651744735885E-11  8.03261841982201E-02
 cg2d: Sum(rhs),rhsMax =  -5.38393496452017E-11  8.02462928535382E-02
 cg2d: Sum(rhs),rhsMax =  -5.38004571448703E-11  8.01668771748305E-02
 cg2d: Sum(rhs),rhsMax =  -5.37814237588918E-11  8.00877318473028E-02
 cg2d: Sum(rhs),rhsMax =  -5.37546673839984E-11  8.00085440997792E-02
 cg2d: Sum(rhs),rhsMax =  -5.37309918779982E-11  7.99292830450279E-02
 cg2d: Sum(rhs),rhsMax =  -5.36821143093391E-11  7.98500820681900E-02
 cg2d: Sum(rhs),rhsMax =  -5.36483635293905E-11  7.97708306499545E-02
 cg2d: Sum(rhs),rhsMax =  -5.36202748868675E-11  7.96951532692386E-02
 cg2d: Sum(rhs),rhsMax =  -5.36006239393316E-11  7.96192610069643E-02
 cg2d: Sum(rhs),rhsMax =  -5.35781974342342E-11  7.95416276541426E-02
 cg2d: Sum(rhs),rhsMax =  -5.35280153535211E-11  7.94614637006203E-02
 cg2d: Sum(rhs),rhsMax =  -5.35151922775867E-11  7.93803633953698E-02
 cg2d: Sum(rhs),rhsMax =  -5.34753907821539E-11  7.92990456467629E-02
 cg2d: Sum(rhs),rhsMax =  -5.34380872885265E-11  7.92175327045654E-02
 cg2d: Sum(rhs),rhsMax =  -5.34231547888453E-11  7.91356177786674E-02
 cg2d: Sum(rhs),rhsMax =  -5.33613153663737E-11  7.90532830154730E-02
 cg2d: Sum(rhs),rhsMax =  -5.33554311843432E-11  7.89705479670469E-02
 cg2d: Sum(rhs),rhsMax =  -5.33361133037147E-11  7.88874083308591E-02
 cg2d: Sum(rhs),rhsMax =  -5.33154631554567E-11  7.88038796084919E-02
 cg2d: Sum(rhs),rhsMax =  -5.33081356834941E-11  7.87200033045808E-02
 cg2d: Sum(rhs),rhsMax =  -5.33108002187532E-11  7.86358281918480E-02
 cg2d: Sum(rhs),rhsMax =  -5.33101340849385E-11  7.85536505305127E-02
 cg2d: Sum(rhs),rhsMax =  -5.32658361862559E-11  7.84681963896435E-02
 cg2d: Sum(rhs),rhsMax =  -5.32585087142934E-11  7.83832893404482E-02
 cg2d: Sum(rhs),rhsMax =  -5.31943378234701E-11  7.82984836856370E-02
 cg2d: Sum(rhs),rhsMax =  -5.27550225726259E-11  7.89075903462076E-02
 cg2d: Sum(rhs),rhsMax =  -5.09936537440581E-11  8.14529992479490E-02
 cg2d: Sum(rhs),rhsMax =  -4.93266538725834E-11  8.39548626394327E-02
 cg2d: Sum(rhs),rhsMax =  -4.78639350376397E-11  8.64122474340126E-02
 cg2d: Sum(rhs),rhsMax =  -4.64958072043942E-11  8.88242370003881E-02
 cg2d: Sum(rhs),rhsMax =  -4.51586545935356E-11  9.11899301475715E-02
 cg2d: Sum(rhs),rhsMax =  -4.39212000102884E-11  9.35084399894201E-02
 cg2d: Sum(rhs),rhsMax =  -4.27696766891472E-11  9.57788928177003E-02
 cg2d: Sum(rhs),rhsMax =  -4.17057499646489E-11  9.80004271230882E-02
 cg2d: Sum(rhs),rhsMax =  -4.07244238331828E-11  1.00172192895569E-01
 cg2d: Sum(rhs),rhsMax =  -3.98262534062610E-11  1.02293351314831E-01
 cg2d: Sum(rhs),rhsMax =  -3.89448473470111E-11  1.04363074914410E-01
 cg2d: Sum(rhs),rhsMax =  -3.81501497059844E-11  1.06380548269269E-01
 cg2d: Sum(rhs),rhsMax =  -3.73784336815675E-11  1.08344969236372E-01
 cg2d: Sum(rhs),rhsMax =  -3.66665586781778E-11  1.10255550742751E-01
 cg2d: Sum(rhs),rhsMax =  -3.60151908296302E-11  1.12111523001033E-01
 cg2d: Sum(rhs),rhsMax =  -3.54013485193150E-11  1.13912136160517E-01
 cg2d: Sum(rhs),rhsMax =  -3.48256978810468E-11  1.15656663231589E-01
 cg2d: Sum(rhs),rhsMax =  -3.42643691197964E-11  1.17344403119996E-01
 cg2d: Sum(rhs),rhsMax =  -3.37759820112637E-11  1.18974683615912E-01
 cg2d: Sum(rhs),rhsMax =  -3.32802674307686E-11  1.20546864191480E-01
 cg2d: Sum(rhs),rhsMax =  -3.28214122546910E-11  1.22060338504003E-01
 cg2d: Sum(rhs),rhsMax =  -3.23715498851129E-11  1.23514536518614E-01
 cg2d: Sum(rhs),rhsMax =  -3.18873816240739E-11  1.24908926203246E-01
 cg2d: Sum(rhs),rhsMax =  -3.15021342345290E-11  1.26243014684565E-01
 cg2d: Sum(rhs),rhsMax =  -3.11514147810499E-11  1.27516348872597E-01
 cg2d: Sum(rhs),rhsMax =  -3.09524628150371E-11  1.28728515633061E-01
 cg2d: Sum(rhs),rhsMax =  -3.07391889720066E-11  1.29879141536286E-01
 cg2d: Sum(rhs),rhsMax =  -3.05155900548471E-11  1.30967892037170E-01
 cg2d: Sum(rhs),rhsMax =  -3.03348457464381E-11  1.31994470452659E-01
 cg2d: Sum(rhs),rhsMax =  -3.01558777948685E-11  1.32958616524655E-01
 cg2d: Sum(rhs),rhsMax =  -3.00097724448278E-11  1.33860104914689E-01
 cg2d: Sum(rhs),rhsMax =  -2.98261415565548E-11  1.34698743691504E-01
 cg2d: Sum(rhs),rhsMax =  -2.97120106296234E-11  1.35474372852065E-01
 cg2d: Sum(rhs),rhsMax =  -2.95941049444082E-11  1.36186862913005E-01
 cg2d: Sum(rhs),rhsMax =  -2.94694268987428E-11  1.36836113643183E-01
 cg2d: Sum(rhs),rhsMax =  -2.93876034618279E-11  1.37422053025012E-01
 cg2d: Sum(rhs),rhsMax =  -2.92948998392717E-11  1.37944636487004E-01
 cg2d: Sum(rhs),rhsMax =  -2.92142976476839E-11  1.38403846430388E-01
 cg2d: Sum(rhs),rhsMax =  -2.91944246555431E-11  1.38799692051889E-01
 cg2d: Sum(rhs),rhsMax =  -2.91843216260190E-11  1.39132209442178E-01
 cg2d: Sum(rhs),rhsMax =  -2.92211810304366E-11  1.39401461916621E-01
 cg2d: Sum(rhs),rhsMax =  -2.91864310497658E-11  1.39607540447591E-01
 cg2d: Sum(rhs),rhsMax =  -2.92381674427133E-11  1.39750564256023E-01
 cg2d: Sum(rhs),rhsMax =  -2.92557089665024E-11  1.39830681475683E-01
 cg2d: Sum(rhs),rhsMax =  -2.92927904155249E-11  1.39848069664067E-01
 cg2d: Sum(rhs),rhsMax =  -2.92744717356186E-11  1.39802936086014E-01
 cg2d: Sum(rhs),rhsMax =  -2.93228774594922E-11  1.39695517717052E-01
 cg2d: Sum(rhs),rhsMax =  -2.93551849495088E-11  1.39526080560634E-01
 cg2d: Sum(rhs),rhsMax =  -2.94252400223627E-11  1.39294919237622E-01
 cg2d: Sum(rhs),rhsMax =  -2.95309332543070E-11  1.39002356225825E-01
 cg2d: Sum(rhs),rhsMax =  -2.96965785295811E-11  1.38648740590903E-01
 cg2d: Sum(rhs),rhsMax =  -2.98376878760109E-11  1.38234446105434E-01
 cg2d: Sum(rhs),rhsMax =  -3.00496294514119E-11  1.37759869666374E-01
 cg2d: Sum(rhs),rhsMax =  -3.01884073294900E-11  1.37225429521440E-01
 cg2d: Sum(rhs),rhsMax =  -3.03745917307197E-11  1.36631563470980E-01
 cg2d: Sum(rhs),rhsMax =  -3.05641068010232E-11  1.35978727233921E-01
 cg2d: Sum(rhs),rhsMax =  -3.08006953275708E-11  1.35267393191803E-01
 cg2d: Sum(rhs),rhsMax =  -3.10335090958347E-11  1.34498049526378E-01
 cg2d: Sum(rhs),rhsMax =  -3.12816439418384E-11  1.33671198999642E-01
 cg2d: Sum(rhs),rhsMax =  -3.15932835448507E-11  1.32787358564881E-01
 cg2d: Sum(rhs),rhsMax =  -3.18728377024513E-11  1.31847059641365E-01
 cg2d: Sum(rhs),rhsMax =  -3.21888071752596E-11  1.30850848987787E-01
 cg2d: Sum(rhs),rhsMax =  -3.25255378186284E-11  1.29799288744052E-01
 cg2d: Sum(rhs),rhsMax =  -3.28976845764828E-11  1.28692956942712E-01
 cg2d: Sum(rhs),rhsMax =  -3.32637251077017E-11  1.27532448161834E-01
 cg2d: Sum(rhs),rhsMax =  -3.36778382958869E-11  1.26318373982911E-01
 cg2d: Sum(rhs),rhsMax =  -3.40497630091363E-11  1.25051363279441E-01
 cg2d: Sum(rhs),rhsMax =  -3.45045103600228E-11  1.23732062160102E-01
 cg2d: Sum(rhs),rhsMax =  -3.50015572081475E-11  1.22361133551586E-01
 cg2d: Sum(rhs),rhsMax =  -3.55238061189311E-11  1.20939256076633E-01
 cg2d: Sum(rhs),rhsMax =  -3.60079743799702E-11  1.19467122596163E-01
 cg2d: Sum(rhs),rhsMax =  -3.65283359116120E-11  1.17945438425350E-01
 cg2d: Sum(rhs),rhsMax =  -3.70876662714181E-11  1.16374919248094E-01
 cg2d: Sum(rhs),rhsMax =  -3.76707554039513E-11  1.14756288836495E-01
 cg2d: Sum(rhs),rhsMax =  -3.82828213574271E-11  1.13090276691705E-01
 cg2d: Sum(rhs),rhsMax =  -3.89284160462466E-11  1.11377615716500E-01
 cg2d: Sum(rhs),rhsMax =  -3.96235266819644E-11  1.09619039535393E-01
 cg2d: Sum(rhs),rhsMax =  -4.03109767788123E-11  1.07815281273288E-01
 cg2d: Sum(rhs),rhsMax =  -4.11138900702213E-11  1.05967072346960E-01
 cg2d: Sum(rhs),rhsMax =  -4.19184686961671E-11  1.04075141391064E-01
 cg2d: Sum(rhs),rhsMax =  -4.27935464841767E-11  1.02140213409464E-01
 cg2d: Sum(rhs),rhsMax =  -4.37581082479710E-11  1.00163009109575E-01
 cg2d: Sum(rhs),rhsMax =  -4.47195613872964E-11  9.81442456248396E-02
 cg2d: Sum(rhs),rhsMax =  -4.57737181491780E-11  9.60846373416769E-02
 cg2d: Sum(rhs),rhsMax =  -4.69103644817892E-11  9.39848968433684E-02
 cg2d: Sum(rhs),rhsMax =  -4.80783191036949E-11  9.18457360481200E-02
 cg2d: Sum(rhs),rhsMax =  -4.93602936302295E-11  8.96678673980130E-02
 cg2d: Sum(rhs),rhsMax =  -5.07064390475875E-11  8.74520052000474E-02
 cg2d: Sum(rhs),rhsMax =  -5.21199750025403E-11  8.51988669942230E-02
 cg2d: Sum(rhs),rhsMax =  -5.36761746161574E-11  8.29091748919767E-02
 cg2d: Sum(rhs),rhsMax =  -5.53530554725512E-11  8.05836569481235E-02
 cg2d: Sum(rhs),rhsMax =  -5.72040192992063E-11  7.82230482926849E-02
 cg2d: Sum(rhs),rhsMax =  -5.85160808697083E-11  7.65592349421867E-02
 cg2d: Sum(rhs),rhsMax =  -5.86719561823656E-11  7.65483181283124E-02
 cg2d: Sum(rhs),rhsMax =  -5.87471182811328E-11  7.65374419446059E-02
 cg2d: Sum(rhs),rhsMax =  -5.88110671273512E-11  7.65268392965245E-02
 cg2d: Sum(rhs),rhsMax =  -5.88682436131194E-11  7.65167471059500E-02
 cg2d: Sum(rhs),rhsMax =  -5.89558402097623E-11  7.65073204043539E-02
 cg2d: Sum(rhs),rhsMax =  -5.90429927171954E-11  7.64986849264037E-02
 cg2d: Sum(rhs),rhsMax =  -5.90931747979084E-11  7.64909726674503E-02
 cg2d: Sum(rhs),rhsMax =  -5.91797721938292E-11  7.64843640414974E-02
 cg2d: Sum(rhs),rhsMax =  -5.92547122479914E-11  7.64790197448360E-02
 cg2d: Sum(rhs),rhsMax =  -5.93204374510492E-11  7.64750781621720E-02
 cg2d: Sum(rhs),rhsMax =  -5.94096438710778E-11  7.64730193062952E-02
 cg2d: Sum(rhs),rhsMax =  -5.94883586835238E-11  7.64721455509821E-02
 cg2d: Sum(rhs),rhsMax =  -5.95687388305066E-11  7.64731652517209E-02
 cg2d: Sum(rhs),rhsMax =  -5.96406812825023E-11  7.64747574198298E-02
 cg2d: Sum(rhs),rhsMax =  -5.97279448122379E-11  7.64751365431820E-02
 cg2d: Sum(rhs),rhsMax =  -5.98068261581375E-11  7.64787298424287E-02
 cg2d: Sum(rhs),rhsMax =  -5.98655014449889E-11  7.64848223360888E-02
 cg2d: Sum(rhs),rhsMax =  -5.99406357881804E-11  7.64928502580546E-02
 cg2d: Sum(rhs),rhsMax =  -6.00007266093883E-11  7.65032441459836E-02
 cg2d: Sum(rhs),rhsMax =  -6.00791361105024E-11  7.65159092579238E-02
 cg2d: Sum(rhs),rhsMax =  -6.01278193901322E-11  7.65408072224776E-02
 cg2d: Sum(rhs),rhsMax =  -6.01791116938699E-11  7.65652548773717E-02
 cg2d: Sum(rhs),rhsMax =  -6.02568689389571E-11  7.65848171477958E-02
 cg2d: Sum(rhs),rhsMax =  -6.03426059120338E-11  7.66061860621942E-02
 cg2d: Sum(rhs),rhsMax =  -6.03979010901923E-11  7.66321827971129E-02
 cg2d: Sum(rhs),rhsMax =  -6.04510608237518E-11  7.66621378139966E-02
 cg2d: Sum(rhs),rhsMax =  -6.05153843702411E-11  7.66954891721621E-02
 cg2d: Sum(rhs),rhsMax =  -6.05781536044958E-11  7.67321509059322E-02
 cg2d: Sum(rhs),rhsMax =  -6.06399375158162E-11  7.67721594016509E-02
 cg2d: Sum(rhs),rhsMax =  -6.06877048614507E-11  7.68155181449076E-02
 cg2d: Sum(rhs),rhsMax =  -6.07325301160699E-11  7.68625380984667E-02
 cg2d: Sum(rhs),rhsMax =  -6.07712213884781E-11  7.69160839336038E-02
 cg2d: Sum(rhs),rhsMax =  -6.08004202540258E-11  7.69704300023192E-02
 cg2d: Sum(rhs),rhsMax =  -6.08563199833156E-11  7.70271433683254E-02
 cg2d: Sum(rhs),rhsMax =  -6.09053918410041E-11  7.70863164304343E-02
 cg2d: Sum(rhs),rhsMax =  -6.09487460501157E-11  7.71488098420122E-02
 cg2d: Sum(rhs),rhsMax =  -6.09941541718229E-11  7.72145980347470E-02
 cg2d: Sum(rhs),rhsMax =  -6.10210215690188E-11  7.72834462176591E-02
 cg2d: Sum(rhs),rhsMax =  -6.10593242633684E-11  7.73566876997271E-02
 cg2d: Sum(rhs),rhsMax =  -6.10670403133895E-11  7.74336050686643E-02
 cg2d: Sum(rhs),rhsMax =  -6.11006800710356E-11  7.75114140921868E-02
 cg2d: Sum(rhs),rhsMax =  -6.11268813344168E-11  7.75918563493583E-02
 cg2d: Sum(rhs),rhsMax =  -6.11638517611368E-11  7.76749214971859E-02
 cg2d: Sum(rhs),rhsMax =  -6.11347639178916E-11  7.77601820461457E-02
 cg2d: Sum(rhs),rhsMax =  -6.11838357755801E-11  7.78475575510227E-02
(PID.TID 0000.0001)      cg2d_init_res =   1.95323954316748E-01
(PID.TID 0000.0001)      cg2d_iters(min,last) =      -1      39
(PID.TID 0000.0001)      cg2d_last_res =   7.09523812358803E-14
(PID.TID 0000.0001) // =======================================================
(PID.TID 0000.0001) // Begin MONITOR dynamic field statistics
(PID.TID 0000.0001) // =======================================================
(PID.TID 0000.0001) %MON time_tsnumber                =                  2400
(PID.TID 0000.0001) %MON time_secondsf                =   3.6000000000000E+04
(PID.TID 0000.0001) %MON dynstat_eta_max              =   9.9941149412831E-03
(PID.TID 0000.0001) %MON dynstat_eta_min              =  -1.7580063369543E-02
(PID.TID 0000.0001) %MON dynstat_eta_mean             =   1.0512260352321E-14
(PID.TID 0000.0001) %MON dynstat_eta_sd               =   8.2502730304685E-03
(PID.TID 0000.0001) %MON dynstat_eta_del2             =   6.5817824024834E-05
(PID.TID 0000.0001) %MON dynstat_uvel_max             =   1.2493235709251E+00
(PID.TID 0000.0001) %MON dynstat_uvel_min             =  -6.1677967797561E-01
(PID.TID 0000.0001) %MON dynstat_uvel_mean            =   4.4976290003355E-01
(PID.TID 0000.0001) %MON dynstat_uvel_sd              =   4.5360935773065E-02
(PID.TID 0000.0001) %MON dynstat_uvel_del2            =   6.8049515884653E-04
(PID.TID 0000.0001) %MON dynstat_vvel_max             =   0.0000000000000E+00
(PID.TID 0000.0001) %MON dynstat_vvel_min             =   0.0000000000000E+00
(PID.TID 0000.0001) %MON dynstat_vvel_mean            =   0.0000000000000E+00
(PID.TID 0000.0001) %MON dynstat_vvel_sd              =   0.0000000000000E+00
(PID.TID 0000.0001) %MON dynstat_vvel_del2            =   0.0000000000000E+00
(PID.TID 0000.0001) %MON dynstat_wvel_max             =   2.3544867286428E-02
(PID.TID 0000.0001) %MON dynstat_wvel_min             =  -7.0627570684760E-02
(PID.TID 0000.0001) %MON dynstat_wvel_mean            =  -2.5304488090810E-20
(PID.TID 0000.0001) %MON dynstat_wvel_sd              =   3.1086535135644E-03
(PID.TID 0000.0001) %MON dynstat_wvel_del2            =   8.2331408939028E-05
(PID.TID 0000.0001) %MON dynstat_theta_max            =   1.5000000000004E+01
(PID.TID 0000.0001) %MON dynstat_theta_min            =   9.9999999999954E+00
(PID.TID 0000.0001) %MON dynstat_theta_mean           =   1.1004492789140E+01
(PID.TID 0000.0001) %MON dynstat_theta_sd             =   1.9249640087523E+00
(PID.TID 0000.0001) %MON dynstat_theta_del2           =   5.5791665752916E-04
(PID.TID 0000.0001) %MON dynstat_salt_max             =   3.5000000000000E+01
(PID.TID 0000.0001) %MON dynstat_salt_min             =   3.5000000000000E+01
(PID.TID 0000.0001) %MON dynstat_salt_mean            =   3.5000000000000E+01
(PID.TID 0000.0001) %MON dynstat_salt_sd              =   4.0500935938326E-13
(PID.TID 0000.0001) %MON dynstat_salt_del2            =   0.0000000000000E+00
(PID.TID 0000.0001) %MON dynstat_sst_max              =   1.5000000000004E+01
(PID.TID 0000.0001) %MON dynstat_sst_min              =   1.4999999999991E+01
(PID.TID 0000.0001) %MON dynstat_sst_mean             =   1.5000000000003E+01
(PID.TID 0000.0001) %MON dynstat_sst_sd               =   1.8960802333165E-12
(PID.TID 0000.0001) %MON dynstat_sst_del2             =   4.1602612977327E-14
(PID.TID 0000.0001) %MON dynstat_sss_max              =   3.5000000000000E+01
(PID.TID 0000.0001) %MON dynstat_sss_min              =   3.5000000000000E+01
(PID.TID 0000.0001) %MON dynstat_sss_mean             =   3.5000000000000E+01
(PID.TID 0000.0001) %MON dynstat_sss_sd               =   4.2632564145606E-14
(PID.TID 0000.0001) %MON dynstat_sss_del2             =   0.0000000000000E+00
(PID.TID 0000.0001) %MON forcing_qnet_max             =   0.0000000000000E+00
(PID.TID 0000.0001) %MON forcing_qnet_min             =   0.0000000000000E+00
(PID.TID 0000.0001) %MON forcing_qnet_mean            =   0.0000000000000E+00
(PID.TID 0000.0001) %MON forcing_qnet_sd              =   0.0000000000000E+00
(PID.TID 0000.0001) %MON forcing_qnet_del2            =   0.0000000000000E+00
(PID.TID 0000.0001) %MON forcing_qsw_max              =   0.0000000000000E+00
(PID.TID 0000.0001) %MON forcing_qsw_min              =   0.0000000000000E+00
(PID.TID 0000.0001) %MON forcing_qsw_mean             =   0.0000000000000E+00
(PID.TID 0000.0001) %MON forcing_qsw_sd               =   0.0000000000000E+00
(PID.TID 0000.0001) %MON forcing_qsw_del2             =   0.0000000000000E+00
(PID.TID 0000.0001) %MON forcing_empmr_max            =   0.0000000000000E+00
(PID.TID 0000.0001) %MON forcing_empmr_min            =   0.0000000000000E+00
(PID.TID 0000.0001) %MON forcing_empmr_mean           =   0.0000000000000E+00
(PID.TID 0000.0001) %MON forcing_empmr_sd             =   0.0000000000000E+00
(PID.TID 0000.0001) %MON forcing_empmr_del2           =   0.0000000000000E+00
(PID.TID 0000.0001) %MON forcing_fu_max               =   0.0000000000000E+00
(PID.TID 0000.0001) %MON forcing_fu_min               =   0.0000000000000E+00
(PID.TID 0000.0001) %MON forcing_fu_mean              =   0.0000000000000E+00
(PID.TID 0000.0001) %MON forcing_fu_sd                =   0.0000000000000E+00
(PID.TID 0000.0001) %MON forcing_fu_del2              =   0.0000000000000E+00
(PID.TID 0000.0001) %MON forcing_fv_max               =   0.0000000000000E+00
(PID.TID 0000.0001) %MON forcing_fv_min               =   0.0000000000000E+00
(PID.TID 0000.0001) %MON forcing_fv_mean              =   0.0000000000000E+00
(PID.TID 0000.0001) %MON forcing_fv_sd                =   0.0000000000000E+00
(PID.TID 0000.0001) %MON forcing_fv_del2              =   0.0000000000000E+00
(PID.TID 0000.0001) %MON advcfl_uvel_max              =   7.1242931699063E-02
(PID.TID 0000.0001) %MON advcfl_vvel_max              =   0.0000000000000E+00
(PID.TID 0000.0001) %MON advcfl_wvel_max              =   4.1289193627124E-01
(PID.TID 0000.0001) %MON advcfl_W_hf_max              =   4.1738395453125E-01
(PID.TID 0000.0001) %MON pe_b_mean                    =   1.6870202794917E-06
(PID.TID 0000.0001) %MON ke_max                       =   3.9482704216734E-01
(PID.TID 0000.0001) %MON ke_mean                      =   1.0216034260197E-01
(PID.TID 0000.0001) %MON ke_vol                       =   9.6656886657870E+10
(PID.TID 0000.0001) %MON vort_r_min                   =   0.0000000000000E+00
(PID.TID 0000.0001) %MON vort_r_max                   =   0.0000000000000E+00
(PID.TID 0000.0001) %MON vort_a_mean                  =   0.0000000000000E+00
(PID.TID 0000.0001) %MON vort_a_sd                    =   0.0000000000000E+00
(PID.TID 0000.0001) %MON vort_p_mean                  =   0.0000000000000E+00
(PID.TID 0000.0001) %MON vort_p_sd                    =   0.0000000000000E+00
(PID.TID 0000.0001) %MON surfExpan_theta_mean         =  -1.2444048334167E-17
(PID.TID 0000.0001) %MON surfExpan_salt_mean          =  -2.9590112686857E-18
(PID.TID 0000.0001) // =======================================================
(PID.TID 0000.0001) // End MONITOR dynamic field statistics
(PID.TID 0000.0001) // =======================================================
(PID.TID 0000.0001) // =======================================================
(PID.TID 0000.0001) // Begin OBCS MONITOR field statistics
(PID.TID 0000.0001) // =======================================================
(PID.TID 0000.0001) %MON obc_E_uVel_max               =   4.4822851314926E-01
(PID.TID 0000.0001) %MON obc_E_uVel_min               =   4.4822851314926E-01
(PID.TID 0000.0001) %MON obc_E_uVel_mean              =   4.4822851314926E-01
(PID.TID 0000.0001) %MON obc_E_uVel_sd                =  -1.9428902930940E-16
(PID.TID 0000.0001) %MON obc_E_uVel_Int               =   4.4822851314926E+05
(PID.TID 0000.0001) %MON obc_W_uVel_max               =   4.4822851314926E-01
(PID.TID 0000.0001) %MON obc_W_uVel_min               =   4.4822851314926E-01
(PID.TID 0000.0001) %MON obc_W_uVel_mean              =   4.4822851314926E-01
(PID.TID 0000.0001) %MON obc_W_uVel_sd                =  -1.9428902930940E-16
(PID.TID 0000.0001) %MON obc_W_uVel_Int               =   4.4822851314926E+05
(PID.TID 0000.0001) // =======================================================
(PID.TID 0000.0001) // End OBCS MONITOR field statistics
(PID.TID 0000.0001) // =======================================================
 cg2d: Sum(rhs),rhsMax =  -6.11907191583327E-11  7.79376811087028E-02
 cg2d: Sum(rhs),rhsMax =  -6.11894979130057E-11  7.80291452592615E-02
 cg2d: Sum(rhs),rhsMax =  -6.11855011101170E-11  7.81225971775018E-02
 cg2d: Sum(rhs),rhsMax =  -6.11455330812305E-11  7.82177403672777E-02
 cg2d: Sum(rhs),rhsMax =  -6.11645178949516E-11  7.83143522411960E-02
 cg2d: Sum(rhs),rhsMax =  -6.11426465013665E-11  7.84123706781136E-02
 cg2d: Sum(rhs),rhsMax =  -6.11269923567193E-11  7.85117738447956E-02
 cg2d: Sum(rhs),rhsMax =  -6.10935746436780E-11  7.86193995230851E-02
 cg2d: Sum(rhs),rhsMax =  -6.05105965334474E-11  7.94860974236533E-02
 cg2d: Sum(rhs),rhsMax =  -5.85089754423507E-11  8.22793201342398E-02
 cg2d: Sum(rhs),rhsMax =  -5.66584557049055E-11  8.50453980863193E-02
 cg2d: Sum(rhs),rhsMax =  -5.49502665592172E-11  8.77829099448720E-02
 cg2d: Sum(rhs),rhsMax =  -5.33625366117008E-11  9.04904255794388E-02
 cg2d: Sum(rhs),rhsMax =  -5.18792786508016E-11  9.31665057593286E-02
 cg2d: Sum(rhs),rhsMax =  -5.04870589779216E-11  9.58097024737425E-02
 cg2d: Sum(rhs),rhsMax =  -4.92202945068243E-11  9.84185599273822E-02
 cg2d: Sum(rhs),rhsMax =  -4.80150363912912E-11  1.00991616204964E-01
 cg2d: Sum(rhs),rhsMax =  -4.68820537946613E-11  1.03527405547508E-01
 cg2d: Sum(rhs),rhsMax =  -4.59006166408926E-11  1.06024461139218E-01
 cg2d: Sum(rhs),rhsMax =  -4.49423831483386E-11  1.08481318258980E-01
 cg2d: Sum(rhs),rhsMax =  -4.40699698955882E-11  1.10896517628091E-01
 cg2d: Sum(rhs),rhsMax =  -4.32524016602542E-11  1.13268608771695E-01
 cg2d: Sum(rhs),rhsMax =  -4.24754675876216E-11  1.15596153223390E-01
 cg2d: Sum(rhs),rhsMax =  -4.17440526589985E-11  1.17877727433046E-01
 cg2d: Sum(rhs),rhsMax =  -4.10158573771469E-11  1.20111925279579E-01
 cg2d: Sum(rhs),rhsMax =  -4.03852506991598E-11  1.22297360136071E-01
 cg2d: Sum(rhs),rhsMax =  -3.97727406564741E-11  1.24432666478986E-01
 cg2d: Sum(rhs),rhsMax =  -3.91772170260651E-11  1.26516501073536E-01
 cg2d: Sum(rhs),rhsMax =  -3.85999010532601E-11  1.28547543798260E-01
 cg2d: Sum(rhs),rhsMax =  -3.81249476433254E-11  1.30524498210414E-01
 cg2d: Sum(rhs),rhsMax =  -3.75923736584127E-11  1.32446091974636E-01
 cg2d: Sum(rhs),rhsMax =  -3.71270791887923E-11  1.34311077239231E-01
 cg2d: Sum(rhs),rhsMax =  -3.67063046624594E-11  1.36118231099333E-01
 cg2d: Sum(rhs),rhsMax =  -3.62341268100863E-11  1.37866356286076E-01
 cg2d: Sum(rhs),rhsMax =  -3.58495455543562E-11  1.39554282146449E-01
 cg2d: Sum(rhs),rhsMax =  -3.55316887024060E-11  1.41180865946837E-01
 cg2d: Sum(rhs),rhsMax =  -3.51809692489269E-11  1.42744994504078E-01
 cg2d: Sum(rhs),rhsMax =  -3.48729933818959E-11  1.44245586164675E-01
 cg2d: Sum(rhs),rhsMax =  -3.46164208409050E-11  1.45681593093842E-01
 cg2d: Sum(rhs),rhsMax =  -3.43725048423948E-11  1.47052003824139E-01
 cg2d: Sum(rhs),rhsMax =  -3.41365824496620E-11  1.48355845993617E-01
 cg2d: Sum(rhs),rhsMax =  -3.39237526958414E-11  1.49592189188276E-01
 cg2d: Sum(rhs),rhsMax =  -3.37095906743912E-11  1.50760147684314E-01
 cg2d: Sum(rhs),rhsMax =  -3.35385053062964E-11  1.51858883083436E-01
 cg2d: Sum(rhs),rhsMax =  -3.33422178755427E-11  1.52887606842554E-01
 cg2d: Sum(rhs),rhsMax =  -3.31576988088500E-11  1.53845582326260E-01
 cg2d: Sum(rhs),rhsMax =  -3.30202531984014E-11  1.54732126594761E-01
 cg2d: Sum(rhs),rhsMax =  -3.28752580713854E-11  1.55546611523981E-01
 cg2d: Sum(rhs),rhsMax =  -3.27584626091948E-11  1.56288464586826E-01
 cg2d: Sum(rhs),rhsMax =  -3.26928484284394E-11  1.56957169287862E-01
 cg2d: Sum(rhs),rhsMax =  -3.25814930590695E-11  1.57552265161405E-01
 cg2d: Sum(rhs),rhsMax =  -3.25224291941595E-11  1.58073347432814E-01
 cg2d: Sum(rhs),rhsMax =  -3.24804627638287E-11  1.58520066391811E-01
 cg2d: Sum(rhs),rhsMax =  -3.24168469845176E-11  1.58892126554045E-01
 cg2d: Sum(rhs),rhsMax =  -3.23898685650192E-11  1.59189285692967E-01
 cg2d: Sum(rhs),rhsMax =  -3.23497895138303E-11  1.59411353833551E-01
 cg2d: Sum(rhs),rhsMax =  -3.23155946446718E-11  1.59558192229796E-01
 cg2d: Sum(rhs),rhsMax =  -3.23130411317152E-11  1.59629712477035E-01
 cg2d: Sum(rhs),rhsMax =  -3.23547855174411E-11  1.59625875863212E-01
 cg2d: Sum(rhs),rhsMax =  -3.24172910737275E-11  1.59546692805649E-01
 cg2d: Sum(rhs),rhsMax =  -3.24632543069470E-11  1.59392222394515E-01
 cg2d: Sum(rhs),rhsMax =  -3.25381943611092E-11  1.59162572012525E-01
 cg2d: Sum(rhs),rhsMax =  -3.25528493050342E-11  1.58857896559748E-01
 cg2d: Sum(rhs),rhsMax =  -3.25766080777612E-11  1.58478398516967E-01
 cg2d: Sum(rhs),rhsMax =  -3.25954818691798E-11  1.58024328027757E-01
 cg2d: Sum(rhs),rhsMax =  -3.26341176304368E-11  1.57495981987443E-01
 cg2d: Sum(rhs),rhsMax =  -3.27275984091102E-11  1.56893703931576E-01
 cg2d: Sum(rhs),rhsMax =  -3.28111982028645E-11  1.56217883708635E-01
 cg2d: Sum(rhs),rhsMax =  -3.29422045197703E-11  1.55468956993103E-01
 cg2d: Sum(rhs),rhsMax =  -3.30619975841273E-11  1.54647404759198E-01
 cg2d: Sum(rhs),rhsMax =  -3.32075478226557E-11  1.53753753158061E-01
 cg2d: Sum(rhs),rhsMax =  -3.33720828749051E-11  1.52788573275239E-01
 cg2d: Sum(rhs),rhsMax =  -3.35124150652177E-11  1.51752480712948E-01
 cg2d: Sum(rhs),rhsMax =  -3.36972671988178E-11  1.50646135717796E-01
 cg2d: Sum(rhs),rhsMax =  -3.38976624547627E-11  1.49470244465963E-01
 cg2d: Sum(rhs),rhsMax =  -3.40847350344120E-11  1.48225559344382E-01
 cg2d: Sum(rhs),rhsMax =  -3.43153283566267E-11  1.46912879519875E-01
 cg2d: Sum(rhs),rhsMax =  -3.45564687975752E-11  1.45533051818356E-01
 cg2d: Sum(rhs),rhsMax =  -3.48202577882262E-11  1.44086971868278E-01
 cg2d: Sum(rhs),rhsMax =  -3.51468854020709E-11  1.42575584900185E-01
 cg2d: Sum(rhs),rhsMax =  -3.55033780152780E-11  1.40999885935610E-01
 cg2d: Sum(rhs),rhsMax =  -3.58818530443727E-11  1.39360919419746E-01
 cg2d: Sum(rhs),rhsMax =  -3.62313512525247E-11  1.37659778135832E-01
 cg2d: Sum(rhs),rhsMax =  -3.66793262429610E-11  1.35897601543341E-01
 cg2d: Sum(rhs),rhsMax =  -3.71109809549353E-11  1.34075573292542E-01
 cg2d: Sum(rhs),rhsMax =  -3.75380837525086E-11  1.32194917894633E-01
 cg2d: Sum(rhs),rhsMax =  -3.80488973661386E-11  1.30256896695533E-01
 cg2d: Sum(rhs),rhsMax =  -3.85763643251380E-11  1.28262803292629E-01
 cg2d: Sum(rhs),rhsMax =  -3.91121579568221E-11  1.26213958522666E-01
 cg2d: Sum(rhs),rhsMax =  -3.97100130555827E-11  1.24111704948533E-01
 cg2d: Sum(rhs),rhsMax =  -4.03332922616073E-11  1.21957402616937E-01
 cg2d: Sum(rhs),rhsMax =  -4.09793310396367E-11  1.19752424824472E-01
 cg2d: Sum(rhs),rhsMax =  -4.16583434414974E-11  1.17498154181644E-01
 cg2d: Sum(rhs),rhsMax =  -4.24212887040198E-11  1.15195978688956E-01
 cg2d: Sum(rhs),rhsMax =  -4.31938929068565E-11  1.12847289882946E-01
 cg2d: Sum(rhs),rhsMax =  -4.40406600077381E-11  1.10453481795953E-01
 cg2d: Sum(rhs),rhsMax =  -4.49058568108285E-11  1.08015950604078E-01
 cg2d: Sum(rhs),rhsMax =  -4.58773019573755E-11  1.05536095051981E-01
 cg2d: Sum(rhs),rhsMax =  -4.69136951508631E-11  1.03015317505268E-01
 cg2d: Sum(rhs),rhsMax =  -4.80988582296504E-11  1.00455025674237E-01
 cg2d: Sum(rhs),rhsMax =  -4.93229901366021E-11  9.78566350216581E-02
 cg2d: Sum(rhs),rhsMax =  -5.06399366884125E-11  9.52215712389132E-02
 cg2d: Sum(rhs),rhsMax =  -5.20450349483781E-11  9.25512725533141E-02
 cg2d: Sum(rhs),rhsMax =  -5.35950173130573E-11  8.98471916713739E-02
 cg2d: Sum(rhs),rhsMax =  -5.51785284130801E-11  8.71107973598827E-02
 cg2d: Sum(rhs),rhsMax =  -5.69913005676881E-11  8.43435750550623E-02
 cg2d: Sum(rhs),rhsMax =  -5.88812332225075E-11  8.15470267753660E-02
 cg2d: Sum(rhs),rhsMax =  -6.09402528439773E-11  7.87226704175189E-02
 cg2d: Sum(rhs),rhsMax =  -6.24127416415377E-11  7.67423316269522E-02
 cg2d: Sum(rhs),rhsMax =  -6.24887919187245E-11  7.65773916078637E-02
 cg2d: Sum(rhs),rhsMax =  -6.25557383671094E-11  7.64124901558014E-02
 cg2d: Sum(rhs),rhsMax =  -6.26644292012202E-11  7.62478974146317E-02
 cg2d: Sum(rhs),rhsMax =  -6.27040641631993E-11  7.60837081496970E-02
 cg2d: Sum(rhs),rhsMax =  -6.27758955928925E-11  7.59200582676203E-02
 cg2d: Sum(rhs),rhsMax =  -6.28237462052539E-11  7.57571104915254E-02
 cg2d: Sum(rhs),rhsMax =  -6.28557206283631E-11  7.55952026194158E-02
 cg2d: Sum(rhs),rhsMax =  -6.29425400688888E-11  7.54343701597994E-02
 cg2d: Sum(rhs),rhsMax =  -6.29944985064412E-11  7.52741306473465E-02
 cg2d: Sum(rhs),rhsMax =  -6.30638319343291E-11  7.51148771074299E-02
 cg2d: Sum(rhs),rhsMax =  -6.31362184755346E-11  7.49576334561745E-02
 cg2d: Sum(rhs),rhsMax =  -6.31772412162945E-11  7.48025744643069E-02
 cg2d: Sum(rhs),rhsMax =  -6.32255359178657E-11  7.46498161288441E-02
 cg2d: Sum(rhs),rhsMax =  -6.32939256561826E-11  7.44992457663040E-02
 cg2d: Sum(rhs),rhsMax =  -6.33410546235780E-11  7.43510341988690E-02
 cg2d: Sum(rhs),rhsMax =  -6.33860186560753E-11  7.42053265614521E-02
 cg2d: Sum(rhs),rhsMax =  -6.34136076982372E-11  7.40621719601110E-02
 cg2d: Sum(rhs),rhsMax =  -6.33447738707105E-11  7.40686139881812E-02
 cg2d: Sum(rhs),rhsMax =  -6.32239816056313E-11  7.41222544362357E-02
 cg2d: Sum(rhs),rhsMax =  -6.30747121199704E-11  7.41747717813121E-02
 cg2d: Sum(rhs),rhsMax =  -6.29434004917329E-11  7.42261020573803E-02
 cg2d: Sum(rhs),rhsMax =  -6.28205265584825E-11  7.42761830369225E-02
 cg2d: Sum(rhs),rhsMax =  -6.27000257269472E-11  7.43250860312450E-02
 cg2d: Sum(rhs),rhsMax =  -6.25648317875704E-11  7.43724023688173E-02
 cg2d: Sum(rhs),rhsMax =  -6.24622359043925E-11  7.44185982211701E-02
 cg2d: Sum(rhs),rhsMax =  -6.23305226876703E-11  7.44639099189186E-02
 cg2d: Sum(rhs),rhsMax =  -6.22267792849129E-11  7.45082628584934E-02
 cg2d: Sum(rhs),rhsMax =  -6.21111634346860E-11  7.45515076435607E-02
 cg2d: Sum(rhs),rhsMax =  -6.20091478165108E-11  7.45923807303900E-02
 cg2d: Sum(rhs),rhsMax =  -6.19010120939123E-11  7.46314772763480E-02
 cg2d: Sum(rhs),rhsMax =  -6.18068096702729E-11  7.46703019457677E-02
 cg2d: Sum(rhs),rhsMax =  -6.17066675534517E-11  7.47091828839482E-02
 cg2d: Sum(rhs),rhsMax =  -6.15849593543771E-11  7.47475818069756E-02
 cg2d: Sum(rhs),rhsMax =  -6.14846507041023E-11  7.47850931185326E-02
 cg2d: Sum(rhs),rhsMax =  -6.13671335969457E-11  7.48217004080271E-02
 cg2d: Sum(rhs),rhsMax =  -6.12857542492407E-11  7.48532147075492E-02
 cg2d: Sum(rhs),rhsMax =  -6.11836692421264E-11  7.48851403650321E-02
 cg2d: Sum(rhs),rhsMax =  -6.10795858335678E-11  7.49111800524698E-02
 cg2d: Sum(rhs),rhsMax =  -6.09642891724604E-11  7.49361459853680E-02
 cg2d: Sum(rhs),rhsMax =  -6.08989525474612E-11  7.49612538968402E-02
 cg2d: Sum(rhs),rhsMax =  -6.07747185910057E-11  7.49932138876168E-02
 cg2d: Sum(rhs),rhsMax =  -6.06912298195539E-11  7.50203552304156E-02
 cg2d: Sum(rhs),rhsMax =  -6.06089622934292E-11  7.50466051422829E-02
 cg2d: Sum(rhs),rhsMax =  -6.05143712917311E-11  7.50722743044147E-02
 cg2d: Sum(rhs),rhsMax =  -6.03781469266096E-11  7.50976079626493E-02
 cg2d: Sum(rhs),rhsMax =  -6.03169736379527E-11  7.51228975620462E-02
 cg2d: Sum(rhs),rhsMax =  -6.01938499045218E-11  7.51483660515789E-02
 cg2d: Sum(rhs),rhsMax =  -6.01055871740641E-11  7.51754481711448E-02
 cg2d: Sum(rhs),rhsMax =  -6.00048899457306E-11  7.52061408755389E-02
 cg2d: Sum(rhs),rhsMax =  -5.99219562857911E-11  7.52364276302238E-02
 cg2d: Sum(rhs),rhsMax =  -5.98250338157413E-11  7.52671395789168E-02
 cg2d: Sum(rhs),rhsMax =  -5.97604188357082E-11  7.53002395673170E-02
 cg2d: Sum(rhs),rhsMax =  -5.95021809601803E-11  7.55796074849863E-02
 cg2d: Sum(rhs),rhsMax =  -5.76996228573989E-11  7.78412894579856E-02
 cg2d: Sum(rhs),rhsMax =  -5.60184121312091E-11  8.00615294168562E-02
 cg2d: Sum(rhs),rhsMax =  -5.44183587081193E-11  8.22394479270832E-02
 cg2d: Sum(rhs),rhsMax =  -5.29022381456912E-11  8.43741953330908E-02
 cg2d: Sum(rhs),rhsMax =  -5.15092413166940E-11  8.64649524573986E-02
 cg2d: Sum(rhs),rhsMax =  -5.02380359534982E-11  8.85109306490193E-02
 cg2d: Sum(rhs),rhsMax =  -4.90097962213554E-11  9.05113712272382E-02
 cg2d: Sum(rhs),rhsMax =  -4.78994621744278E-11  9.24655443961793E-02
 cg2d: Sum(rhs),rhsMax =  -4.68265426434300E-11  9.43727477333792E-02
 cg2d: Sum(rhs),rhsMax =  -4.58499904709697E-11  9.62323043742568E-02
 cg2d: Sum(rhs),rhsMax =  -4.49565940030539E-11  9.80435610556671E-02
 cg2d: Sum(rhs),rhsMax =  -4.40725234085448E-11  9.98058861547206E-02
 cg2d: Sum(rhs),rhsMax =  -4.32565094854453E-11  1.01518667824956E-01
 cg2d: Sum(rhs),rhsMax =  -4.25022239625150E-11  1.03181312444016E-01
 cg2d: Sum(rhs),rhsMax =  -4.17791357065767E-11  1.04793243414687E-01
 cg2d: Sum(rhs),rhsMax =  -4.11282119472389E-11  1.06353900390543E-01
 cg2d: Sum(rhs),rhsMax =  -4.05179223506025E-11  1.07862738930261E-01
 cg2d: Sum(rhs),rhsMax =  -3.99150712482310E-11  1.09319230588172E-01
 cg2d: Sum(rhs),rhsMax =  -3.93426402567343E-11  1.10722863425768E-01
 cg2d: Sum(rhs),rhsMax =  -3.88727938727129E-11  1.12073142901032E-01
 cg2d: Sum(rhs),rhsMax =  -3.82921472308340E-11  1.13369593091872E-01
 cg2d: Sum(rhs),rhsMax =  -3.77811115725990E-11  1.14611758088151E-01
 cg2d: Sum(rhs),rhsMax =  -3.73281405785519E-11  1.15799203492811E-01
 cg2d: Sum(rhs),rhsMax =  -3.69008157363737E-11  1.16931517973742E-01
 cg2d: Sum(rhs),rhsMax =  -3.64834829014171E-11  1.18008314879500E-01
 cg2d: Sum(rhs),rhsMax =  -3.60976804003599E-11  1.19029233483118E-01
 cg2d: Sum(rhs),rhsMax =  -3.57507357051645E-11  1.19993940154271E-01
 cg2d: Sum(rhs),rhsMax =  -3.54192231100114E-11  1.20902129244363E-01
 cg2d: Sum(rhs),rhsMax =  -3.51259021869055E-11  1.21753523715231E-01
 cg2d: Sum(rhs),rhsMax =  -3.48280293493985E-11  1.22547875584680E-01
 cg2d: Sum(rhs),rhsMax =  -3.44461126289275E-11  1.23284966150986E-01
 cg2d: Sum(rhs),rhsMax =  -3.41183747920581E-11  1.23964606010300E-01
 cg2d: Sum(rhs),rhsMax =  -3.39013261907439E-11  1.24586634846562E-01
 cg2d: Sum(rhs),rhsMax =  -3.38423733481363E-11  1.25150921070294E-01
 cg2d: Sum(rhs),rhsMax =  -3.36750627383253E-11  1.25657361342770E-01
 cg2d: Sum(rhs),rhsMax =  -3.35631522574431E-11  1.26105880026335E-01
 cg2d: Sum(rhs),rhsMax =  -3.34364758103334E-11  1.26496428601215E-01
 cg2d: Sum(rhs),rhsMax =  -3.33995053836134E-11  1.26828985087685E-01
 cg2d: Sum(rhs),rhsMax =  -3.33254535078709E-11  1.27103553500767E-01
 cg2d: Sum(rhs),rhsMax =  -3.33169047905812E-11  1.27320163273532E-01
 cg2d: Sum(rhs),rhsMax =  -3.33029159804710E-11  1.27478868903977E-01
 cg2d: Sum(rhs),rhsMax =  -3.33076899394769E-11  1.27579749680864E-01
 cg2d: Sum(rhs),rhsMax =  -3.32733840480159E-11  1.27622909425363E-01
 cg2d: Sum(rhs),rhsMax =  -3.33050254042178E-11  1.27608476242414E-01
 cg2d: Sum(rhs),rhsMax =  -3.33928440454656E-11  1.27536602268701E-01
 cg2d: Sum(rhs),rhsMax =  -3.35131922213350E-11  1.27407463176850E-01
 cg2d: Sum(rhs),rhsMax =  -3.36154437619030E-11  1.27221257781731E-01
 cg2d: Sum(rhs),rhsMax =  -3.37261329974581E-11  1.26978207840015E-01
 cg2d: Sum(rhs),rhsMax =  -3.39070993504720E-11  1.26678557631935E-01
 cg2d: Sum(rhs),rhsMax =  -3.41371375611743E-11  1.26322572665836E-01
 cg2d: Sum(rhs),rhsMax =  -3.43761685783761E-11  1.25910538508026E-01
 cg2d: Sum(rhs),rhsMax =  -3.46130901718311E-11  1.25442759647185E-01
 cg2d: Sum(rhs),rhsMax =  -3.48177042752695E-11  1.24919558095916E-01
 cg2d: Sum(rhs),rhsMax =  -3.50039996988016E-11  1.24341271830773E-01
 cg2d: Sum(rhs),rhsMax =  -3.52529117009226E-11  1.23708253165756E-01
 cg2d: Sum(rhs),rhsMax =  -3.55078189073765E-11  1.23020867687058E-01
 cg2d: Sum(rhs),rhsMax =  -3.57563978425901E-11  1.22279492362267E-01
 cg2d: Sum(rhs),rhsMax =  -3.60902419060949E-11  1.21484514123579E-01
 cg2d: Sum(rhs),rhsMax =  -3.64015484421998E-11  1.20636329223797E-01
 cg2d: Sum(rhs),rhsMax =  -3.67414987323400E-11  1.19735343241985E-01
 cg2d: Sum(rhs),rhsMax =  -3.70879993383255E-11  1.18781971098690E-01
 cg2d: Sum(rhs),rhsMax =  -3.75129927121520E-11  1.17776637082341E-01
 cg2d: Sum(rhs),rhsMax =  -3.79313247478308E-11  1.16719775531305E-01
 cg2d: Sum(rhs),rhsMax =  -3.84110521167713E-11  1.15611831703317E-01
 cg2d: Sum(rhs),rhsMax =  -3.88920007310389E-11  1.14453262898274E-01
 cg2d: Sum(rhs),rhsMax =  -3.93430843459441E-11  1.13244539721955E-01
 cg2d: Sum(rhs),rhsMax =  -3.98066024587251E-11  1.11986147318089E-01
 cg2d: Sum(rhs),rhsMax =  -4.02972100133070E-11  1.10678586469327E-01
 cg2d: Sum(rhs),rhsMax =  -4.08592049083722E-11  1.09322374733874E-01
 cg2d: Sum(rhs),rhsMax =  -4.14627221445585E-11  1.07918047223566E-01
 cg2d: Sum(rhs),rhsMax =  -4.21063184319337E-11  1.06466157127054E-01
 cg2d: Sum(rhs),rhsMax =  -4.27281543480262E-11  1.04967276080665E-01
 cg2d: Sum(rhs),rhsMax =  -4.34614566557912E-11  1.03421994392639E-01
 cg2d: Sum(rhs),rhsMax =  -4.41852110455443E-11  1.01830921117114E-01
 cg2d: Sum(rhs),rhsMax =  -4.49931203405640E-11  1.00194683441716E-01
 cg2d: Sum(rhs),rhsMax =  -4.58265647651501E-11  9.85139269264754E-02
 cg2d: Sum(rhs),rhsMax =  -4.67538230353171E-11  9.67893153184374E-02
 cg2d: Sum(rhs),rhsMax =  -4.77041739443962E-11  9.50215298774169E-02
 cg2d: Sum(rhs),rhsMax =  -4.87347939781557E-11  9.32112683505874E-02
 cg2d: Sum(rhs),rhsMax =  -4.97860641601733E-11  9.13592433359164E-02
 cg2d: Sum(rhs),rhsMax =  -5.09602360310168E-11  8.94661811446733E-02
 cg2d: Sum(rhs),rhsMax =  -5.21794829566602E-11  8.75328205609246E-02
 cg2d: Sum(rhs),rhsMax =  -5.35045341365503E-11  8.55599112525624E-02
 cg2d: Sum(rhs),rhsMax =  -5.49189582699228E-11  8.35482118958845E-02
 cg2d: Sum(rhs),rhsMax =  -5.57806023593344E-11  8.24184732202364E-02
 cg2d: Sum(rhs),rhsMax =  -5.58577628595458E-11  8.24732843551347E-02
 cg2d: Sum(rhs),rhsMax =  -5.59542412403857E-11  8.25288355952290E-02
 cg2d: Sum(rhs),rhsMax =  -5.60104185254318E-11  8.25852607540148E-02
 cg2d: Sum(rhs),rhsMax =  -5.61162227796785E-11  8.26427250268377E-02
 cg2d: Sum(rhs),rhsMax =  -5.62078161792101E-11  8.27075215753784E-02
 cg2d: Sum(rhs),rhsMax =  -5.62951907312481E-11  8.27686905061278E-02
 cg2d: Sum(rhs),rhsMax =  -5.63883384430142E-11  8.28313408681594E-02
 cg2d: Sum(rhs),rhsMax =  -5.64146507286978E-11  8.28897627872396E-02
 cg2d: Sum(rhs),rhsMax =  -5.64261970481539E-11  8.29503366648700E-02
 cg2d: Sum(rhs),rhsMax =  -5.64326363416967E-11  8.30111010825434E-02
 cg2d: Sum(rhs),rhsMax =  -5.64420732374060E-11  8.30794525465198E-02
 cg2d: Sum(rhs),rhsMax =  -5.64539526237695E-11  8.31505156146861E-02
 cg2d: Sum(rhs),rhsMax =  -5.64784885526137E-11  8.32218490774242E-02
 cg2d: Sum(rhs),rhsMax =  -5.64800983759994E-11  8.32951686875550E-02
 cg2d: Sum(rhs),rhsMax =  -5.65200108937347E-11  8.33715885207737E-02
 cg2d: Sum(rhs),rhsMax =  -5.65372193506164E-11  8.34520459529443E-02
 cg2d: Sum(rhs),rhsMax =  -5.65578694988744E-11  8.35353362155287E-02
 cg2d: Sum(rhs),rhsMax =  -5.65552049636153E-11  8.36221531983139E-02
 cg2d: Sum(rhs),rhsMax =  -5.65658075935005E-11  8.37125741815190E-02
 cg2d: Sum(rhs),rhsMax =  -5.65811286712403E-11  8.38066673946003E-02
 cg2d: Sum(rhs),rhsMax =  -5.65831270726846E-11  8.39045501855359E-02
 cg2d: Sum(rhs),rhsMax =  -5.65770763572004E-11  8.40063100475952E-02
 cg2d: Sum(rhs),rhsMax =  -5.65596736112894E-11  8.41120264974206E-02
 cg2d: Sum(rhs),rhsMax =  -5.65635871474512E-11  8.42213954835804E-02
 cg2d: Sum(rhs),rhsMax =  -5.65504587601851E-11  8.43351420267069E-02
 cg2d: Sum(rhs),rhsMax =  -5.65284208331462E-11  8.44528338214661E-02
 cg2d: Sum(rhs),rhsMax =  -5.65213292835764E-11  8.45748708854871E-02
 cg2d: Sum(rhs),rhsMax =  -5.65143903896725E-11  8.47012899069691E-02
 cg2d: Sum(rhs),rhsMax =  -5.65115593209597E-11  8.48319872512387E-02
 cg2d: Sum(rhs),rhsMax =  -5.64842929373643E-11  8.49668862119524E-02
 cg2d: Sum(rhs),rhsMax =  -5.64714395037691E-11  8.51059365899659E-02
 cg2d: Sum(rhs),rhsMax =  -5.64401581026885E-11  8.52489456415532E-02
 cg2d: Sum(rhs),rhsMax =  -5.63890323324046E-11  8.53958662076958E-02
 cg2d: Sum(rhs),rhsMax =  -5.63517010832015E-11  8.55465352880912E-02
 cg2d: Sum(rhs),rhsMax =  -5.63266239206328E-11  8.57007290889938E-02
 cg2d: Sum(rhs),rhsMax =  -5.63062929614944E-11  8.58579984958436E-02
 cg2d: Sum(rhs),rhsMax =  -5.62586643937379E-11  8.60182750592134E-02
 cg2d: Sum(rhs),rhsMax =  -5.62229707234962E-11  8.61808248293408E-02
 cg2d: Sum(rhs),rhsMax =  -5.62030699757798E-11  8.63425153440774E-02
 cg2d: Sum(rhs),rhsMax =  -5.61656832154256E-11  8.65066056626588E-02
 cg2d: Sum(rhs),rhsMax =  -5.61100610418919E-11  8.66706625444332E-02
 cg2d: Sum(rhs),rhsMax =  -5.60824164885787E-11  8.68354245973977E-02
 cg2d: Sum(rhs),rhsMax =  -5.60416157924237E-11  8.70011780020179E-02
 cg2d: Sum(rhs),rhsMax =  -5.59893797991151E-11  8.71678968288725E-02
 cg2d: Sum(rhs),rhsMax =  -5.59484680806577E-11  8.73355404358721E-02
 cg2d: Sum(rhs),rhsMax =  -5.59157720125825E-11  8.75040196520410E-02
 cg2d: Sum(rhs),rhsMax =  -5.58550428131355E-11  8.76719090188944E-02
 cg2d: Sum(rhs),rhsMax =  -5.58133539385608E-11  8.78414002518154E-02
 cg2d: Sum(rhs),rhsMax =  -5.57829338276861E-11  8.80106945128604E-02
 cg2d: Sum(rhs),rhsMax =  -5.57299761894114E-11  8.81804978252024E-02
 cg2d: Sum(rhs),rhsMax =  -5.56866774914511E-11  8.83510897270121E-02
 cg2d: Sum(rhs),rhsMax =  -5.56463763956572E-11  8.85223734124188E-02
 cg2d: Sum(rhs),rhsMax =  -5.56000800955303E-11  8.86942613216340E-02
 cg2d: Sum(rhs),rhsMax =  -5.55594459328290E-11  8.88664989897599E-02
 cg2d: Sum(rhs),rhsMax =  -5.55060442053446E-11  8.90396121639828E-02
 cg2d: Sum(rhs),rhsMax =  -5.54500889649034E-11  8.92121858777225E-02
 cg2d: Sum(rhs),rhsMax =  -5.54001289287953E-11  8.93844068966502E-02
 cg2d: Sum(rhs),rhsMax =  -5.53403989300705E-11  8.95559447286389E-02
 cg2d: Sum(rhs),rhsMax =  -5.52978773882273E-11  8.97265164591787E-02
 cg2d: Sum(rhs),rhsMax =  -5.52410339693665E-11  8.98960352620349E-02
 cg2d: Sum(rhs),rhsMax =  -5.51804157922220E-11  9.00638938799019E-02
 cg2d: Sum(rhs),rhsMax =  -5.51662049375068E-11  9.02297129069302E-02
 cg2d: Sum(rhs),rhsMax =  -5.51039214258253E-11  9.03947488193980E-02
 cg2d: Sum(rhs),rhsMax =  -5.50494094753162E-11  9.05572982758449E-02
 cg2d: Sum(rhs),rhsMax =  -5.49843504060732E-11  9.07177568318531E-02
 cg2d: Sum(rhs),rhsMax =  -5.42291767047232E-11  9.20808522051961E-02
 cg2d: Sum(rhs),rhsMax =  -5.29465360443737E-11  9.44434845262639E-02
 cg2d: Sum(rhs),rhsMax =  -5.16854337107020E-11  9.67699833448485E-02
 cg2d: Sum(rhs),rhsMax =  -5.05621100543863E-11  9.90591448138429E-02
 cg2d: Sum(rhs),rhsMax =  -4.95430363400828E-11  1.01309767341455E-01
 cg2d: Sum(rhs),rhsMax =  -4.85518292236975E-11  1.03520653463204E-01
 cg2d: Sum(rhs),rhsMax =  -4.76632067147875E-11  1.05690611891924E-01
 cg2d: Sum(rhs),rhsMax =  -4.68391991859107E-11  1.07818459614156E-01
 cg2d: Sum(rhs),rhsMax =  -4.60373961175264E-11  1.09903023923317E-01
 cg2d: Sum(rhs),rhsMax =  -4.52756721003311E-11  1.11943144310029E-01
 cg2d: Sum(rhs),rhsMax =  -4.45647962976636E-11  1.13937674160464E-01
 cg2d: Sum(rhs),rhsMax =  -4.38852287842906E-11  1.15885482249656E-01
 cg2d: Sum(rhs),rhsMax =  -4.32881508416472E-11  1.17785454040455E-01
 cg2d: Sum(rhs),rhsMax =  -4.26885193860471E-11  1.19636492816163E-01
 cg2d: Sum(rhs),rhsMax =  -4.21004342499032E-11  1.21437520701255E-01
 cg2d: Sum(rhs),rhsMax =  -4.15708578671570E-11  1.23187479634531E-01
 cg2d: Sum(rhs),rhsMax =  -4.10749212420569E-11  1.24885332329658E-01
 cg2d: Sum(rhs),rhsMax =  -4.05903088918080E-11  1.26530063319287E-01
 cg2d: Sum(rhs),rhsMax =  -4.01428890128841E-11  1.28120680126740E-01
 cg2d: Sum(rhs),rhsMax =  -3.97172295052428E-11  1.29656214614892E-01
 cg2d: Sum(rhs),rhsMax =  -3.92972321350271E-11  1.31135724480506E-01
 cg2d: Sum(rhs),rhsMax =  -3.89366316966289E-11  1.32558294886566E-01
 cg2d: Sum(rhs),rhsMax =  -3.85639298272622E-11  1.33923040240862E-01
 cg2d: Sum(rhs),rhsMax =  -3.82707199264587E-11  1.35229106059132E-01
 cg2d: Sum(rhs),rhsMax =  -3.80224740581525E-11  1.36475670869487E-01
 cg2d: Sum(rhs),rhsMax =  -3.77783360150374E-11  1.37661948112720E-01
 cg2d: Sum(rhs),rhsMax =  -3.75696140864079E-11  1.38787187869663E-01
 cg2d: Sum(rhs),rhsMax =  -3.73322484037431E-11  1.39850678429024E-01
 cg2d: Sum(rhs),rhsMax =  -3.71535024967784E-11  1.40851747690100E-01
 cg2d: Sum(rhs),rhsMax =  -3.69786423703999E-11  1.41789764323449E-01
 cg2d: Sum(rhs),rhsMax =  -3.68001185080402E-11  1.42664138549976E-01
 cg2d: Sum(rhs),rhsMax =  -3.66443542176853E-11  1.43474322671076E-01
 cg2d: Sum(rhs),rhsMax =  -3.65265595547726E-11  1.44219811219751E-01
 cg2d: Sum(rhs),rhsMax =  -3.63729046881645E-11  1.44900140974542E-01
 cg2d: Sum(rhs),rhsMax =  -3.63045149498475E-11  1.45514890855093E-01
 cg2d: Sum(rhs),rhsMax =  -3.62172514201120E-11  1.46063681663362E-01
 cg2d: Sum(rhs),rhsMax =  -3.61665142278866E-11  1.46546175785235E-01
 cg2d: Sum(rhs),rhsMax =  -3.61330965148454E-11  1.46962076900126E-01
 cg2d: Sum(rhs),rhsMax =  -3.60635965535039E-11  1.47311129754253E-01
 cg2d: Sum(rhs),rhsMax =  -3.59768881352807E-11  1.47593120042475E-01
 cg2d: Sum(rhs),rhsMax =  -3.59454688236838E-11  1.47807874409605E-01
 cg2d: Sum(rhs),rhsMax =  -3.59144936012967E-11  1.47955260578580E-01
 cg2d: Sum(rhs),rhsMax =  -3.59139384897844E-11  1.48035187819420E-01
 cg2d: Sum(rhs),rhsMax =  -3.59637875035901E-11  1.48047607521037E-01
 cg2d: Sum(rhs),rhsMax =  -3.60284024836233E-11  1.47992513854393E-01
 cg2d: Sum(rhs),rhsMax =  -3.60301788404627E-11  1.47869944505612E-01
 cg2d: Sum(rhs),rhsMax =  -3.59137164451795E-11  1.47679981460144E-01
 cg2d: Sum(rhs),rhsMax =  -3.59634544366827E-11  1.47422751342899E-01
 cg2d: Sum(rhs),rhsMax =  -3.59554608309054E-11  1.47098426600750E-01
 cg2d: Sum(rhs),rhsMax =  -3.59731133769969E-11  1.46707226344694E-01
 cg2d: Sum(rhs),rhsMax =  -3.60173002533770E-11  1.46249416386961E-01
 cg2d: Sum(rhs),rhsMax =  -3.61123353442849E-11  1.45725309522968E-01
 cg2d: Sum(rhs),rhsMax =  -3.62052610114461E-11  1.45135265746069E-01
 cg2d: Sum(rhs),rhsMax =  -3.63398200420306E-11  1.44479692050429E-01
 cg2d: Sum(rhs),rhsMax =  -3.64598351509926E-11  1.43759041906070E-01
 cg2d: Sum(rhs),rhsMax =  -3.66283670061307E-11  1.42973814732816E-01
 cg2d: Sum(rhs),rhsMax =  -3.67760266684058E-11  1.42124554775346E-01
 cg2d: Sum(rhs),rhsMax =  -3.69594355120739E-11  1.41211849572469E-01
 cg2d: Sum(rhs),rhsMax =  -3.71709329982650E-11  1.40236328512759E-01
 cg2d: Sum(rhs),rhsMax =  -3.73597819347538E-11  1.39198661773425E-01
 cg2d: Sum(rhs),rhsMax =  -3.75366404625765E-11  1.38099558928167E-01
 cg2d: Sum(rhs),rhsMax =  -3.78007625201349E-11  1.36939766836525E-01
 cg2d: Sum(rhs),rhsMax =  -3.80668829791375E-11  1.35720067782068E-01
 cg2d: Sum(rhs),rhsMax =  -3.83615361698730E-11  1.34441277923012E-01
 cg2d: Sum(rhs),rhsMax =  -3.86821685793848E-11  1.33104245673363E-01
 cg2d: Sum(rhs),rhsMax =  -3.90497634228382E-11  1.31709850158439E-01
 cg2d: Sum(rhs),rhsMax =  -3.94322352548215E-11  1.30258999516731E-01
 cg2d: Sum(rhs),rhsMax =  -3.98526767142471E-11  1.28752629147904E-01
 cg2d: Sum(rhs),rhsMax =  -4.03119759795345E-11  1.27191700215518E-01
 cg2d: Sum(rhs),rhsMax =  -4.07497369181442E-11  1.25577198067956E-01
 cg2d: Sum(rhs),rhsMax =  -4.12309075770168E-11  1.23910130634140E-01
 cg2d: Sum(rhs),rhsMax =  -4.17520462647758E-11  1.22191526850148E-01
 cg2d: Sum(rhs),rhsMax =  -4.23027168849899E-11  1.20422435119104E-01
 cg2d: Sum(rhs),rhsMax =  -4.28570512411852E-11  1.18603921817992E-01
 cg2d: Sum(rhs),rhsMax =  -4.34636771018404E-11  1.16737069308340E-01
 cg2d: Sum(rhs),rhsMax =  -4.41117142813141E-11  1.14822975100783E-01
 cg2d: Sum(rhs),rhsMax =  -4.48154846566240E-11  1.12862750821953E-01
 cg2d: Sum(rhs),rhsMax =  -4.55181448089093E-11  1.10857520957407E-01
 cg2d: Sum(rhs),rhsMax =  -4.62884175433942E-11  1.08808421326291E-01
 cg2d: Sum(rhs),rhsMax =  -4.70967709276238E-11  1.06716597517155E-01
 cg2d: Sum(rhs),rhsMax =  -4.79538631026344E-11  1.04583204303405E-01
 cg2d: Sum(rhs),rhsMax =  -4.89288609628602E-11  1.02409404889918E-01
 cg2d: Sum(rhs),rhsMax =  -4.98979746410555E-11  1.00196369985323E-01
 cg2d: Sum(rhs),rhsMax =  -5.09141617754949E-11  9.79452769690782E-02
 cg2d: Sum(rhs),rhsMax =  -5.20257170677496E-11  9.56573092477328E-02
 cg2d: Sum(rhs),rhsMax =  -5.32737187697307E-11  9.33336557167342E-02
 cg2d: Sum(rhs),rhsMax =  -5.32129895702838E-11  9.33479629326941E-02
 cg2d: Sum(rhs),rhsMax =  -5.31865662622977E-11  9.33661415186074E-02
 cg2d: Sum(rhs),rhsMax =  -5.31279464865975E-11  9.33815256609186E-02
 cg2d: Sum(rhs),rhsMax =  -5.30407939791644E-11  9.33942512135635E-02
 cg2d: Sum(rhs),rhsMax =  -5.30026023071173E-11  9.34038160914046E-02
 cg2d: Sum(rhs),rhsMax =  -5.29599697429717E-11  9.34102059517634E-02
 cg2d: Sum(rhs),rhsMax =  -5.29014609895739E-11  9.34133210299257E-02
 cg2d: Sum(rhs),rhsMax =  -5.28461718829476E-11  9.34130211382935E-02
 cg2d: Sum(rhs),rhsMax =  -5.27732302302297E-11  9.34092850851239E-02
 cg2d: Sum(rhs),rhsMax =  -5.27424770524476E-11  9.34026652662980E-02
 cg2d: Sum(rhs),rhsMax =  -5.26884091911484E-11  9.33923614510681E-02
 cg2d: Sum(rhs),rhsMax =  -5.26590993032983E-11  9.33807788558854E-02
 cg2d: Sum(rhs),rhsMax =  -5.26005905499005E-11  9.33677534810512E-02
 cg2d: Sum(rhs),rhsMax =  -5.25429144637712E-11  9.33530047081322E-02
 cg2d: Sum(rhs),rhsMax =  -5.24918442046385E-11  9.33391523122304E-02
 cg2d: Sum(rhs),rhsMax =  -5.24555399117332E-11  9.33228860720627E-02
 cg2d: Sum(rhs),rhsMax =  -5.24132959256463E-11  9.33036293207534E-02
 cg2d: Sum(rhs),rhsMax =  -5.23650012240751E-11  9.32817938310707E-02
 cg2d: Sum(rhs),rhsMax =  -5.23169285671088E-11  9.32588946133373E-02
 cg2d: Sum(rhs),rhsMax =  -5.22744070252656E-11  9.32348171011725E-02
 cg2d: Sum(rhs),rhsMax =  -5.22345500186816E-11  9.32093497513767E-02
 cg2d: Sum(rhs),rhsMax =  -5.22060172869487E-11  9.31824581877237E-02
 cg2d: Sum(rhs),rhsMax =  -5.21632737005007E-11  9.31542528754996E-02
 cg2d: Sum(rhs),rhsMax =  -5.21313547885427E-11  9.31243702807532E-02
 cg2d: Sum(rhs),rhsMax =  -5.20823106864299E-11  9.30930070427764E-02
 cg2d: Sum(rhs),rhsMax =  -5.20471721277005E-11  9.30602487085904E-02
 cg2d: Sum(rhs),rhsMax =  -5.20058163200332E-11  9.30260091101504E-02
 cg2d: Sum(rhs),rhsMax =  -5.19888021521808E-11  9.29903092746665E-02
 cg2d: Sum(rhs),rhsMax =  -5.19519427477633E-11  9.29531202272393E-02
 cg2d: Sum(rhs),rhsMax =  -5.19032178347700E-11  9.29144378519512E-02
 cg2d: Sum(rhs),rhsMax =  -5.18471029997691E-11  9.28742677209486E-02
 cg2d: Sum(rhs),rhsMax =  -5.18088072443135E-11  9.28322221967342E-02
 cg2d: Sum(rhs),rhsMax =  -5.17986070702747E-11  9.27884788561584E-02
 cg2d: Sum(rhs),rhsMax =  -5.17609531625052E-11  9.27430941323214E-02
 cg2d: Sum(rhs),rhsMax =  -5.17268172739449E-11  9.26964544017866E-02
 cg2d: Sum(rhs),rhsMax =  -5.16872517009048E-11  9.26485759487692E-02
 cg2d: Sum(rhs),rhsMax =  -5.16526266203243E-11  9.26001357256277E-02
 cg2d: Sum(rhs),rhsMax =  -5.16104381453886E-11  9.25503732404748E-02
 cg2d: Sum(rhs),rhsMax =  -5.15847642379441E-11  9.24830890357037E-02
 cg2d: Sum(rhs),rhsMax =  -5.15599785089194E-11  9.24230904321866E-02
 cg2d: Sum(rhs),rhsMax =  -5.15452958094187E-11  9.23527768055558E-02
 cg2d: Sum(rhs),rhsMax =  -5.15321119110013E-11  9.22825010429444E-02
 cg2d: Sum(rhs),rhsMax =  -5.15083531382743E-11  9.22122410421205E-02
 cg2d: Sum(rhs),rhsMax =  -5.14964737519108E-11  9.21404478506025E-02
 cg2d: Sum(rhs),rhsMax =  -5.14617792823913E-11  9.20669664902869E-02
 cg2d: Sum(rhs),rhsMax =  -5.14536191431603E-11  9.19920621934484E-02
 cg2d: Sum(rhs),rhsMax =  -5.14566722564780E-11  9.19161812275977E-02
 cg2d: Sum(rhs),rhsMax =  -5.14388531769328E-11  9.18389198739002E-02
 cg2d: Sum(rhs),rhsMax =  -5.14343567736830E-11  9.17608194233946E-02
 cg2d: Sum(rhs),rhsMax =  -5.14049358635305E-11  9.16818991570633E-02
 cg2d: Sum(rhs),rhsMax =  -5.13064035700950E-11  9.16022921833985E-02
 cg2d: Sum(rhs),rhsMax =  -5.12086484327767E-11  9.15221979056710E-02
 cg2d: Sum(rhs),rhsMax =  -5.11333198005559E-11  9.14417604491531E-02
 cg2d: Sum(rhs),rhsMax =  -5.10382847096480E-11  9.13610673437906E-02
 cg2d: Sum(rhs),rhsMax =  -5.09566833173380E-11  9.12803211660875E-02
 cg2d: Sum(rhs),rhsMax =  -5.09662312353498E-11  9.12018054010054E-02
 cg2d: Sum(rhs),rhsMax =  -5.08968422963108E-11  9.11255153035126E-02
 cg2d: Sum(rhs),rhsMax =  -5.08667552523434E-11  9.10477330754342E-02
 cg2d: Sum(rhs),rhsMax =  -5.08015851607979E-11  9.09687975363448E-02
 cg2d: Sum(rhs),rhsMax =  -5.07054398468654E-11  9.08904238641580E-02
 cg2d: Sum(rhs),rhsMax =  -5.06189534732471E-11  9.08132979958950E-02
 cg2d: Sum(rhs),rhsMax =  -5.06028552393900E-11  9.07383073590493E-02
 cg2d: Sum(rhs),rhsMax =  -5.05030461894762E-11  9.06655944603960E-02
 cg2d: Sum(rhs),rhsMax =  -5.03745933855271E-11  9.06908752301580E-02
 cg2d: Sum(rhs),rhsMax =  -5.03664887574473E-11  9.05554769054464E-02
 cg2d: Sum(rhs),rhsMax =  -5.03298513976347E-11  9.04862235874244E-02
 cg2d: Sum(rhs),rhsMax =  -5.02273778124618E-11  9.04962305645603E-02
 cg2d: Sum(rhs),rhsMax =  -5.01960695231674E-11  9.03815235403541E-02
 cg2d: Sum(rhs),rhsMax =  -5.02001773483585E-11  9.03184718927008E-02
 cg2d: Sum(rhs),rhsMax =  -5.01565455834907E-11  9.02572825882244E-02
 cg2d: Sum(rhs),rhsMax =  -5.00576247119966E-11  9.02569409504817E-02
 cg2d: Sum(rhs),rhsMax =  -5.00302022032884E-11  9.01648672887823E-02
 cg2d: Sum(rhs),rhsMax =  -4.99753571858719E-11  9.01128478623630E-02
 cg2d: Sum(rhs),rhsMax =  -4.97076824146347E-11  9.04787287183054E-02
 cg2d: Sum(rhs),rhsMax =  -4.87637707990984E-11  9.20654391233232E-02
 cg2d: Sum(rhs),rhsMax =  -4.79202233449882E-11  9.36057197904748E-02
 cg2d: Sum(rhs),rhsMax =  -4.71036543103764E-11  9.50990459668760E-02
 cg2d: Sum(rhs),rhsMax =  -4.63366012226629E-11  9.65449151688181E-02
 cg2d: Sum(rhs),rhsMax =  -4.56475968135805E-11  9.79428454396431E-02
 cg2d: Sum(rhs),rhsMax =  -4.49759118836823E-11  9.92923738726366E-02
 cg2d: Sum(rhs),rhsMax =  -4.43343139977515E-11  1.00593055425925E-01
 cg2d: Sum(rhs),rhsMax =  -4.37240244011150E-11  1.01844462048723E-01
(PID.TID 0000.0001)      cg2d_init_res =   6.48379994272364E-02
(PID.TID 0000.0001)      cg2d_iters(min,last) =      -1      38
(PID.TID 0000.0001)      cg2d_last_res =   3.82719721123004E-14
(PID.TID 0000.0001) // =======================================================
(PID.TID 0000.0001) // Begin MONITOR dynamic field statistics
(PID.TID 0000.0001) // =======================================================
(PID.TID 0000.0001) %MON time_tsnumber                =                  2880
(PID.TID 0000.0001) %MON time_secondsf                =   4.3200000000000E+04
(PID.TID 0000.0001) %MON dynstat_eta_max              =   1.9680576530598E-02
(PID.TID 0000.0001) %MON dynstat_eta_min              =  -1.7767721920454E-02
(PID.TID 0000.0001) %MON dynstat_eta_mean             =   9.8111090296477E-15
(PID.TID 0000.0001) %MON dynstat_eta_sd               =   1.3556809326515E-02
(PID.TID 0000.0001) %MON dynstat_eta_del2             =   6.7192002441341E-05
(PID.TID 0000.0001) %MON dynstat_uvel_max             =   1.2741758149372E+00
(PID.TID 0000.0001) %MON dynstat_uvel_min             =  -2.7219338599330E-01
(PID.TID 0000.0001) %MON dynstat_uvel_mean            =   4.5456869797305E-01
(PID.TID 0000.0001) %MON dynstat_uvel_sd              =   5.1846449259416E-02
(PID.TID 0000.0001) %MON dynstat_uvel_del2            =   7.7877035431532E-04
(PID.TID 0000.0001) %MON dynstat_vvel_max             =   0.0000000000000E+00
(PID.TID 0000.0001) %MON dynstat_vvel_min             =   0.0000000000000E+00
(PID.TID 0000.0001) %MON dynstat_vvel_mean            =   0.0000000000000E+00
(PID.TID 0000.0001) %MON dynstat_vvel_sd              =   0.0000000000000E+00
(PID.TID 0000.0001) %MON dynstat_vvel_del2            =   0.0000000000000E+00
(PID.TID 0000.0001) %MON dynstat_wvel_max             =   3.4481170781428E-02
(PID.TID 0000.0001) %MON dynstat_wvel_min             =  -7.6885481732521E-02
(PID.TID 0000.0001) %MON dynstat_wvel_mean            =   1.8815737722646E-20
(PID.TID 0000.0001) %MON dynstat_wvel_sd              =   3.9756900344930E-03
(PID.TID 0000.0001) %MON dynstat_wvel_del2            =   1.2889273265381E-04
(PID.TID 0000.0001) %MON dynstat_theta_max            =   1.5000000000005E+01
(PID.TID 0000.0001) %MON dynstat_theta_min            =   9.9999999999947E+00
(PID.TID 0000.0001) %MON dynstat_theta_mean           =   1.1002233976239E+01
(PID.TID 0000.0001) %MON dynstat_theta_sd             =   1.9154254050611E+00
(PID.TID 0000.0001) %MON dynstat_theta_del2           =   5.7206901521056E-04
(PID.TID 0000.0001) %MON dynstat_salt_max             =   3.5000000000000E+01
(PID.TID 0000.0001) %MON dynstat_salt_min             =   3.5000000000000E+01
(PID.TID 0000.0001) %MON dynstat_salt_mean            =   3.5000000000000E+01
(PID.TID 0000.0001) %MON dynstat_salt_sd              =   4.0500935938326E-13
(PID.TID 0000.0001) %MON dynstat_salt_del2            =   0.0000000000000E+00
(PID.TID 0000.0001) %MON dynstat_sst_max              =   1.5000000000005E+01
(PID.TID 0000.0001) %MON dynstat_sst_min              =   1.4999999999962E+01
(PID.TID 0000.0001) %MON dynstat_sst_mean             =   1.5000000000003E+01
(PID.TID 0000.0001) %MON dynstat_sst_sd               =   4.6825436116829E-12
(PID.TID 0000.0001) %MON dynstat_sst_del2             =   1.2341109238619E-13
(PID.TID 0000.0001) %MON dynstat_sss_max              =   3.5000000000000E+01
(PID.TID 0000.0001) %MON dynstat_sss_min              =   3.5000000000000E+01
(PID.TID 0000.0001) %MON dynstat_sss_mean             =   3.5000000000000E+01
(PID.TID 0000.0001) %MON dynstat_sss_sd               =   4.2632564145606E-14
(PID.TID 0000.0001) %MON dynstat_sss_del2             =   0.0000000000000E+00
(PID.TID 0000.0001) %MON forcing_qnet_max             =   0.0000000000000E+00
(PID.TID 0000.0001) %MON forcing_qnet_min             =   0.0000000000000E+00
(PID.TID 0000.0001) %MON forcing_qnet_mean            =   0.0000000000000E+00
(PID.TID 0000.0001) %MON forcing_qnet_sd              =   0.0000000000000E+00
(PID.TID 0000.0001) %MON forcing_qnet_del2            =   0.0000000000000E+00
(PID.TID 0000.0001) %MON forcing_qsw_max              =   0.0000000000000E+00
(PID.TID 0000.0001) %MON forcing_qsw_min              =   0.0000000000000E+00
(PID.TID 0000.0001) %MON forcing_qsw_mean             =   0.0000000000000E+00
(PID.TID 0000.0001) %MON forcing_qsw_sd               =   0.0000000000000E+00
(PID.TID 0000.0001) %MON forcing_qsw_del2             =   0.0000000000000E+00
(PID.TID 0000.0001) %MON forcing_empmr_max            =   0.0000000000000E+00
(PID.TID 0000.0001) %MON forcing_empmr_min            =   0.0000000000000E+00
(PID.TID 0000.0001) %MON forcing_empmr_mean           =   0.0000000000000E+00
(PID.TID 0000.0001) %MON forcing_empmr_sd             =   0.0000000000000E+00
(PID.TID 0000.0001) %MON forcing_empmr_del2           =   0.0000000000000E+00
(PID.TID 0000.0001) %MON forcing_fu_max               =   0.0000000000000E+00
(PID.TID 0000.0001) %MON forcing_fu_min               =   0.0000000000000E+00
(PID.TID 0000.0001) %MON forcing_fu_mean              =   0.0000000000000E+00
(PID.TID 0000.0001) %MON forcing_fu_sd                =   0.0000000000000E+00
(PID.TID 0000.0001) %MON forcing_fu_del2              =   0.0000000000000E+00
(PID.TID 0000.0001) %MON forcing_fv_max               =   0.0000000000000E+00
(PID.TID 0000.0001) %MON forcing_fv_min               =   0.0000000000000E+00
(PID.TID 0000.0001) %MON forcing_fv_mean              =   0.0000000000000E+00
(PID.TID 0000.0001) %MON forcing_fv_sd                =   0.0000000000000E+00
(PID.TID 0000.0001) %MON forcing_fv_del2              =   0.0000000000000E+00
(PID.TID 0000.0001) %MON advcfl_uvel_max              =   8.6601205988825E-02
(PID.TID 0000.0001) %MON advcfl_vvel_max              =   0.0000000000000E+00
(PID.TID 0000.0001) %MON advcfl_wvel_max              =   4.2633915046619E-01
(PID.TID 0000.0001) %MON advcfl_W_hf_max              =   4.3097746640460E-01
(PID.TID 0000.0001) %MON pe_b_mean                    =   4.5551075623847E-06
(PID.TID 0000.0001) %MON ke_max                       =   4.3263038280310E-01
(PID.TID 0000.0001) %MON ke_mean                      =   1.0467734763129E-01
(PID.TID 0000.0001) %MON ke_vol                       =   9.6656886657870E+10
(PID.TID 0000.0001) %MON vort_r_min                   =   0.0000000000000E+00
(PID.TID 0000.0001) %MON vort_r_max                   =   0.0000000000000E+00
(PID.TID 0000.0001) %MON vort_a_mean                  =   0.0000000000000E+00
(PID.TID 0000.0001) %MON vort_a_sd                    =   0.0000000000000E+00
(PID.TID 0000.0001) %MON vort_p_mean                  =   0.0000000000000E+00
(PID.TID 0000.0001) %MON vort_p_sd                    =   0.0000000000000E+00
(PID.TID 0000.0001) %MON surfExpan_theta_mean         =   4.2569539082539E-18
(PID.TID 0000.0001) %MON surfExpan_salt_mean          =   7.1135450260411E-19
(PID.TID 0000.0001) // =======================================================
(PID.TID 0000.0001) // End MONITOR dynamic field statistics
(PID.TID 0000.0001) // =======================================================
(PID.TID 0000.0001) // =======================================================
(PID.TID 0000.0001) // Begin OBCS MONITOR field statistics
(PID.TID 0000.0001) // =======================================================
(PID.TID 0000.0001) %MON obc_E_uVel_max               =   4.4822851314926E-01
(PID.TID 0000.0001) %MON obc_E_uVel_min               =   4.4822851314926E-01
(PID.TID 0000.0001) %MON obc_E_uVel_mean              =   4.4822851314926E-01
(PID.TID 0000.0001) %MON obc_E_uVel_sd                =  -1.9428902930940E-16
(PID.TID 0000.0001) %MON obc_E_uVel_Int               =   4.4822851314926E+05
(PID.TID 0000.0001) %MON obc_W_uVel_max               =   4.4822851314926E-01
(PID.TID 0000.0001) %MON obc_W_uVel_min               =   4.4822851314926E-01
(PID.TID 0000.0001) %MON obc_W_uVel_mean              =   4.4822851314926E-01
(PID.TID 0000.0001) %MON obc_W_uVel_sd                =  -1.9428902930940E-16
(PID.TID 0000.0001) %MON obc_W_uVel_Int               =   4.4822851314926E+05
(PID.TID 0000.0001) // =======================================================
(PID.TID 0000.0001) // End OBCS MONITOR field statistics
(PID.TID 0000.0001) // =======================================================
(PID.TID 0000.0001) %CHECKPOINT      2880 0000002880
 cg2d: Sum(rhs),rhsMax =  -4.31726876470861E-11  1.03046182134747E-01
 cg2d: Sum(rhs),rhsMax =  -4.26501056693951E-11  1.04197820215830E-01
 cg2d: Sum(rhs),rhsMax =  -4.21406243233946E-11  1.05298996922775E-01
 cg2d: Sum(rhs),rhsMax =  -4.16594536645221E-11  1.06349349184706E-01
 cg2d: Sum(rhs),rhsMax =  -4.11898293251056E-11  1.07348530730773E-01
 cg2d: Sum(rhs),rhsMax =  -4.07153200043808E-11  1.08296212610769E-01
 cg2d: Sum(rhs),rhsMax =  -4.03700406437224E-11  1.09192083932062E-01
 cg2d: Sum(rhs),rhsMax =  -3.99899002800908E-11  1.10035852804355E-01
 cg2d: Sum(rhs),rhsMax =  -3.96510602129752E-11  1.10827247335271E-01
 cg2d: Sum(rhs),rhsMax =  -3.93584054236840E-11  1.11566016829464E-01
 cg2d: Sum(rhs),rhsMax =  -3.90723009502381E-11  1.12251933135316E-01
 cg2d: Sum(rhs),rhsMax =  -3.88177268106915E-11  1.12884792090486E-01
 cg2d: Sum(rhs),rhsMax =  -3.86004561647724E-11  1.13464414973407E-01
 cg2d: Sum(rhs),rhsMax =  -3.83865161879271E-11  1.13990649894905E-01
 cg2d: Sum(rhs),rhsMax =  -3.82309739421771E-11  1.14463373089253E-01
 cg2d: Sum(rhs),rhsMax =  -3.80370179797751E-11  1.14882490031275E-01
 cg2d: Sum(rhs),rhsMax =  -3.79386522197933E-11  1.15247936299989E-01
 cg2d: Sum(rhs),rhsMax =  -3.77802233941793E-11  1.15559678117240E-01
 cg2d: Sum(rhs),rhsMax =  -3.76267905721761E-11  1.15817712465361E-01
 cg2d: Sum(rhs),rhsMax =  -3.75617315029331E-11  1.16022066777644E-01
 cg2d: Sum(rhs),rhsMax =  -3.73985287183132E-11  1.16172798288274E-01
 cg2d: Sum(rhs),rhsMax =  -3.74674735681424E-11  1.16269992876115E-01
 cg2d: Sum(rhs),rhsMax =  -3.74481556875139E-11  1.16313763435217E-01
 cg2d: Sum(rhs),rhsMax =  -3.75061093293994E-11  1.16304247853054E-01
 cg2d: Sum(rhs),rhsMax =  -3.75315334366633E-11  1.16241606693412E-01
 cg2d: Sum(rhs),rhsMax =  -3.76505493449031E-11  1.16126020465599E-01
 cg2d: Sum(rhs),rhsMax =  -3.77685660524207E-11  1.15957687032412E-01
 cg2d: Sum(rhs),rhsMax =  -3.79005715700487E-11  1.15736819385993E-01
 cg2d: Sum(rhs),rhsMax =  -3.80497855445583E-11  1.15463643242928E-01
 cg2d: Sum(rhs),rhsMax =  -3.82198717119309E-11  1.15138394614821E-01
 cg2d: Sum(rhs),rhsMax =  -3.84006160203398E-11  1.14761317756436E-01
 cg2d: Sum(rhs),rhsMax =  -3.85875775776867E-11  1.14332663941847E-01
 cg2d: Sum(rhs),rhsMax =  -3.88074017365625E-11  1.13852690563547E-01
 cg2d: Sum(rhs),rhsMax =  -3.90627530322263E-11  1.13321660522763E-01
 cg2d: Sum(rhs),rhsMax =  -3.93212129523590E-11  1.12739842044082E-01
 cg2d: Sum(rhs),rhsMax =  -3.96009891545646E-11  1.12107509088948E-01
 cg2d: Sum(rhs),rhsMax =  -3.99348332180693E-11  1.11424941226503E-01
 cg2d: Sum(rhs),rhsMax =  -4.02780031549810E-11  1.10692423922969E-01
 cg2d: Sum(rhs),rhsMax =  -4.06771283323337E-11  1.09910249082576E-01
 cg2d: Sum(rhs),rhsMax =  -4.10682599039092E-11  1.09078715874078E-01
 cg2d: Sum(rhs),rhsMax =  -4.14852596719584E-11  1.08198131490293E-01
 cg2d: Sum(rhs),rhsMax =  -4.20031787129460E-11  1.07268811168222E-01
 cg2d: Sum(rhs),rhsMax =  -4.24696944278935E-11  1.06291078403921E-01
 cg2d: Sum(rhs),rhsMax =  -4.30145918883795E-11  1.05265265166580E-01
 cg2d: Sum(rhs),rhsMax =  -4.35605995718902E-11  1.04191712148587E-01
 cg2d: Sum(rhs),rhsMax =  -4.40945058244324E-11  1.03070769207143E-01
 cg2d: Sum(rhs),rhsMax =  -4.46429559985972E-11  1.01902795894897E-01
 cg2d: Sum(rhs),rhsMax =  -4.52594628441716E-11  1.00688162531777E-01
 cg2d: Sum(rhs),rhsMax =  -4.59030591315468E-11  9.94272516038703E-02
 cg2d: Sum(rhs),rhsMax =  -4.66187088932202E-11  9.81204594155387E-02
 cg2d: Sum(rhs),rhsMax =  -4.73479033757940E-11  9.67681980298943E-02
 cg2d: Sum(rhs),rhsMax =  -4.81240602923094E-11  9.53708975439824E-02
 cg2d: Sum(rhs),rhsMax =  -4.89107643275588E-11  9.39290086753908E-02
 cg2d: Sum(rhs),rhsMax =  -4.93014518099244E-11  9.33727970811600E-02
 cg2d: Sum(rhs),rhsMax =  -4.93963758785299E-11  9.33785339806905E-02
 cg2d: Sum(rhs),rhsMax =  -4.94425611563543E-11  9.33786567826551E-02
 cg2d: Sum(rhs),rhsMax =  -4.95667951128098E-11  9.33726247365260E-02
 cg2d: Sum(rhs),rhsMax =  -4.96506169511690E-11  9.33598636400457E-02
 cg2d: Sum(rhs),rhsMax =  -4.97664132126374E-11  9.33396361142954E-02
 cg2d: Sum(rhs),rhsMax =  -4.98761032474704E-11  9.33114454848200E-02
 cg2d: Sum(rhs),rhsMax =  -5.00058883190491E-11  9.32747679289119E-02
 cg2d: Sum(rhs),rhsMax =  -5.01479968662011E-11  9.32293190794272E-02
 cg2d: Sum(rhs),rhsMax =  -5.02712316219345E-11  9.31753767317120E-02
 cg2d: Sum(rhs),rhsMax =  -5.03929120654334E-11  9.31130233355695E-02
 cg2d: Sum(rhs),rhsMax =  -5.05697705932562E-11  9.30419607550438E-02
 cg2d: Sum(rhs),rhsMax =  -5.06533703870105E-11  9.29470515794547E-02
 cg2d: Sum(rhs),rhsMax =  -5.08144637478836E-11  9.28509083844609E-02
 cg2d: Sum(rhs),rhsMax =  -5.09837727591389E-11  9.27362255443513E-02
 cg2d: Sum(rhs),rhsMax =  -5.11815034798246E-11  9.26180536165740E-02
 cg2d: Sum(rhs),rhsMax =  -5.13707965055232E-11  9.24960445354644E-02
 cg2d: Sum(rhs),rhsMax =  -5.15698594938385E-11  9.23681550261832E-02
 cg2d: Sum(rhs),rhsMax =  -5.17881293404798E-11  9.22201993321026E-02
 cg2d: Sum(rhs),rhsMax =  -5.19890797079370E-11  9.20936473585992E-02
 cg2d: Sum(rhs),rhsMax =  -5.21870324732276E-11  9.19570253685765E-02
 cg2d: Sum(rhs),rhsMax =  -5.24315590944013E-11  9.18168058350954E-02
 cg2d: Sum(rhs),rhsMax =  -5.26072518880483E-11  9.16748749068795E-02
 cg2d: Sum(rhs),rhsMax =  -5.28412313904880E-11  9.15315910301794E-02
 cg2d: Sum(rhs),rhsMax =  -5.30311905500014E-11  9.13857199699250E-02
 cg2d: Sum(rhs),rhsMax =  -5.32771604611071E-11  9.12421775571097E-02
 cg2d: Sum(rhs),rhsMax =  -5.34753352710027E-11  9.10992133491259E-02
 cg2d: Sum(rhs),rhsMax =  -5.36014010954489E-11  9.09570318233395E-02
 cg2d: Sum(rhs),rhsMax =  -5.38132871596986E-11  9.08246431235633E-02
 cg2d: Sum(rhs),rhsMax =  -5.39381872499689E-11  9.06937471203198E-02
 cg2d: Sum(rhs),rhsMax =  -5.40637534740540E-11  9.05665147725458E-02
 cg2d: Sum(rhs),rhsMax =  -5.41832134715037E-11  9.04469287286341E-02
 cg2d: Sum(rhs),rhsMax =  -5.43035894029487E-11  9.03365179448816E-02
 cg2d: Sum(rhs),rhsMax =  -5.44249367795402E-11  9.02355792448493E-02
 cg2d: Sum(rhs),rhsMax =  -5.45252454298151E-11  9.01455014531925E-02
 cg2d: Sum(rhs),rhsMax =  -5.46384881783268E-11  9.00668486572181E-02
 cg2d: Sum(rhs),rhsMax =  -5.47488998581258E-11  9.00006866007340E-02
 cg2d: Sum(rhs),rhsMax =  -5.48430467706140E-11  8.99481943260180E-02
 cg2d: Sum(rhs),rhsMax =  -5.49230938506895E-11  8.99093445181608E-02
 cg2d: Sum(rhs),rhsMax =  -5.50164497292727E-11  8.98851510493171E-02
 cg2d: Sum(rhs),rhsMax =  -5.50798295861910E-11  8.98757482794865E-02
 cg2d: Sum(rhs),rhsMax =  -5.51294600248387E-11  8.98817205139034E-02
 cg2d: Sum(rhs),rhsMax =  -5.51621023164861E-11  8.99039387087446E-02
 cg2d: Sum(rhs),rhsMax =  -5.51973605711353E-11  8.99429431554037E-02
 cg2d: Sum(rhs),rhsMax =  -5.52324574965013E-11  8.99980528805555E-02
 cg2d: Sum(rhs),rhsMax =  -5.52543844012376E-11  9.00700721727771E-02
 cg2d: Sum(rhs),rhsMax =  -5.52502488204709E-11  9.01590517607335E-02
 cg2d: Sum(rhs),rhsMax =  -5.52481949078754E-11  9.02652550027242E-02
 cg2d: Sum(rhs),rhsMax =  -5.52286272270663E-11  9.03884590552133E-02
 cg2d: Sum(rhs),rhsMax =  -5.52057011216078E-11  9.05281216948279E-02
 cg2d: Sum(rhs),rhsMax =  -5.51828860384518E-11  9.06839632599048E-02
 cg2d: Sum(rhs),rhsMax =  -5.51406975635160E-11  9.08556072648501E-02
 cg2d: Sum(rhs),rhsMax =  -5.50938183963012E-11  9.10428031402047E-02
 cg2d: Sum(rhs),rhsMax =  -5.50307577285025E-11  9.12413854148132E-02
 cg2d: Sum(rhs),rhsMax =  -5.49812972927555E-11  9.14548119553650E-02
 cg2d: Sum(rhs),rhsMax =  -5.48948109191372E-11  9.16891035942444E-02
 cg2d: Sum(rhs),rhsMax =  -5.48013301404637E-11  9.19324749507923E-02
 cg2d: Sum(rhs),rhsMax =  -5.47056844268923E-11  9.21820091938004E-02
 cg2d: Sum(rhs),rhsMax =  -5.45991585276795E-11  9.24526810470984E-02
 cg2d: Sum(rhs),rhsMax =  -5.44847500449919E-11  9.27281756634481E-02
 cg2d: Sum(rhs),rhsMax =  -5.43681211162550E-11  9.30072756168440E-02
 cg2d: Sum(rhs),rhsMax =  -5.42321187957384E-11  9.33027153648474E-02
 cg2d: Sum(rhs),rhsMax =  -5.41082734173415E-11  9.35990058473935E-02
 cg2d: Sum(rhs),rhsMax =  -5.40131273041311E-11  9.38992605227638E-02
 cg2d: Sum(rhs),rhsMax =  -5.38823430318303E-11  9.41979723191603E-02
 cg2d: Sum(rhs),rhsMax =  -5.37813127365894E-11  9.45007817599994E-02
 cg2d: Sum(rhs),rhsMax =  -5.36544142448747E-11  9.48070906130555E-02
 cg2d: Sum(rhs),rhsMax =  -5.35639310683678E-11  9.51081952213788E-02
 cg2d: Sum(rhs),rhsMax =  -5.34364774651408E-11  9.54061075996582E-02
 cg2d: Sum(rhs),rhsMax =  -5.33256772072832E-11  9.56975093794789E-02
 cg2d: Sum(rhs),rhsMax =  -5.32042188083892E-11  9.59840928932992E-02
 cg2d: Sum(rhs),rhsMax =  -5.31041877138705E-11  9.62627851688629E-02
 cg2d: Sum(rhs),rhsMax =  -5.30278043697763E-11  9.65335672581099E-02
 cg2d: Sum(rhs),rhsMax =  -5.29311039443314E-11  9.67957364503227E-02
 cg2d: Sum(rhs),rhsMax =  -5.28147525713507E-11  9.70460201295367E-02
 cg2d: Sum(rhs),rhsMax =  -5.27085042278941E-11  9.72828277673091E-02
 cg2d: Sum(rhs),rhsMax =  -5.27338173128555E-11  9.75050808945471E-02
 cg2d: Sum(rhs),rhsMax =  -5.27304866437817E-11  9.77114886105165E-02
 cg2d: Sum(rhs),rhsMax =  -5.27132781869000E-11  9.79004676155445E-02
 cg2d: Sum(rhs),rhsMax =  -5.27617949330761E-11  9.80721408536818E-02
 cg2d: Sum(rhs),rhsMax =  -5.27641264014278E-11  9.82232998347322E-02
 cg2d: Sum(rhs),rhsMax =  -5.28249666231773E-11  9.83537645307142E-02
 cg2d: Sum(rhs),rhsMax =  -5.28572741131939E-11  9.84627187594761E-02
 cg2d: Sum(rhs),rhsMax =  -5.19276843746752E-11  1.00390326525208E-01
 cg2d: Sum(rhs),rhsMax =  -5.10599340586282E-11  1.02301441388930E-01
 cg2d: Sum(rhs),rhsMax =  -5.02641261945769E-11  1.04170614741163E-01
 cg2d: Sum(rhs),rhsMax =  -4.94521090743660E-11  1.05996838722334E-01
 cg2d: Sum(rhs),rhsMax =  -4.87042628449785E-11  1.07779137728535E-01
 cg2d: Sum(rhs),rhsMax =  -4.80534501079433E-11  1.09516569366996E-01
 cg2d: Sum(rhs),rhsMax =  -4.73764361075268E-11  1.11208224721895E-01
 cg2d: Sum(rhs),rhsMax =  -4.67522687230826E-11  1.12853227986956E-01
 cg2d: Sum(rhs),rhsMax =  -4.61889415603878E-11  1.14450735538781E-01
 cg2d: Sum(rhs),rhsMax =  -4.56116255875827E-11  1.15999934548203E-01
 cg2d: Sum(rhs),rhsMax =  -4.51071402451930E-11  1.17500041319822E-01
 cg2d: Sum(rhs),rhsMax =  -4.45893322265078E-11  1.18950299505498E-01
 cg2d: Sum(rhs),rhsMax =  -4.41224834446530E-11  1.20349978380474E-01
 cg2d: Sum(rhs),rhsMax =  -4.37326841407071E-11  1.21698371280944E-01
 cg2d: Sum(rhs),rhsMax =  -4.32969216035417E-11  1.22994794322076E-01
 cg2d: Sum(rhs),rhsMax =  -4.28953539355348E-11  1.24238585511310E-01
 cg2d: Sum(rhs),rhsMax =  -4.25405266568646E-11  1.25429104292845E-01
 cg2d: Sum(rhs),rhsMax =  -4.22100132624337E-11  1.26565731587228E-01
 cg2d: Sum(rhs),rhsMax =  -4.19060341982913E-11  1.27647870200161E-01
 cg2d: Sum(rhs),rhsMax =  -4.16461309882266E-11  1.28674945603510E-01
 cg2d: Sum(rhs),rhsMax =  -4.13949985400563E-11  1.29646407000558E-01
 cg2d: Sum(rhs),rhsMax =  -4.11917167042475E-11  1.30561728673950E-01
 cg2d: Sum(rhs),rhsMax =  -4.09676736978781E-11  1.31420411252871E-01
 cg2d: Sum(rhs),rhsMax =  -4.08231226600719E-11  1.32221983068433E-01
 cg2d: Sum(rhs),rhsMax =  -4.06348288350955E-11  1.32966001358691E-01
 cg2d: Sum(rhs),rhsMax =  -4.04618560878589E-11  1.33652053317254E-01
 cg2d: Sum(rhs),rhsMax =  -4.03244104774103E-11  1.34279757043088E-01
 cg2d: Sum(rhs),rhsMax =  -4.02037292346336E-11  1.34848762373464E-01
 cg2d: Sum(rhs),rhsMax =  -4.00964816904548E-11  1.35358751495395E-01
 cg2d: Sum(rhs),rhsMax =  -4.00679489587219E-11  1.35809439433820E-01
 cg2d: Sum(rhs),rhsMax =  -3.99611455037530E-11  1.36200574448469E-01
 cg2d: Sum(rhs),rhsMax =  -3.99036359510774E-11  1.36531938368867E-01
 cg2d: Sum(rhs),rhsMax =  -3.99016375496331E-11  1.36803346907147E-01
 cg2d: Sum(rhs),rhsMax =  -3.98499011566855E-11  1.37014649892981E-01
 cg2d: Sum(rhs),rhsMax =  -3.98845401150538E-11  1.37165731727936E-01
 cg2d: Sum(rhs),rhsMax =  -3.98951982560902E-11  1.37256511872359E-01
 cg2d: Sum(rhs),rhsMax =  -3.98890920294548E-11  1.37286945363039E-01
 cg2d: Sum(rhs),rhsMax =  -3.99472677159451E-11  1.37257023369698E-01
 cg2d: Sum(rhs),rhsMax =  -3.99454913591057E-11  1.37166773785710E-01
 cg2d: Sum(rhs),rhsMax =  -3.99402733108900E-11  1.37016261841659E-01
 cg2d: Sum(rhs),rhsMax =  -3.99519306526486E-11  1.36805590323173E-01
 cg2d: Sum(rhs),rhsMax =  -3.99782429383322E-11  1.36534900563783E-01
 cg2d: Sum(rhs),rhsMax =  -4.00347532902856E-11  1.36204372942299E-01
 cg2d: Sum(rhs),rhsMax =  -4.00646182896480E-11  1.35814227015557E-01
 cg2d: Sum(rhs),rhsMax =  -4.01286781581689E-11  1.35364721365956E-01
 cg2d: Sum(rhs),rhsMax =  -4.02627930995436E-11  1.34856153788415E-01
 cg2d: Sum(rhs),rhsMax =  -4.03979072416405E-11  1.34288861089242E-01
 cg2d: Sum(rhs),rhsMax =  -4.05652178514515E-11  1.33663218560730E-01
 cg2d: Sum(rhs),rhsMax =  -4.06694677934638E-11  1.32979639339398E-01
 cg2d: Sum(rhs),rhsMax =  -4.08514333471999E-11  1.32238573579274E-01
 cg2d: Sum(rhs),rhsMax =  -4.10396161498738E-11  1.31440506786686E-01
 cg2d: Sum(rhs),rhsMax =  -4.12204714805853E-11  1.30585958541859E-01
 cg2d: Sum(rhs),rhsMax =  -4.14435152862325E-11  1.29675481293145E-01
 cg2d: Sum(rhs),rhsMax =  -4.16828793703417E-11  1.28709659836421E-01
 cg2d: Sum(rhs),rhsMax =  -4.19256851458272E-11  1.27689109495196E-01
 cg2d: Sum(rhs),rhsMax =  -4.21701562558496E-11  1.26614474576017E-01
 cg2d: Sum(rhs),rhsMax =  -4.25010027171879E-11  1.25486427197605E-01
 cg2d: Sum(rhs),rhsMax =  -4.28732604973447E-11  1.24305666356676E-01
 cg2d: Sum(rhs),rhsMax =  -4.32580637976798E-11  1.23072916939620E-01
 cg2d: Sum(rhs),rhsMax =  -4.36787273017103E-11  1.21788928804231E-01
 cg2d: Sum(rhs),rhsMax =  -4.40945058244324E-11  1.20454476211797E-01
 cg2d: Sum(rhs),rhsMax =  -4.45525838443928E-11  1.19070357026827E-01
 cg2d: Sum(rhs),rhsMax =  -4.50480763802830E-11  1.17637391954907E-01
 cg2d: Sum(rhs),rhsMax =  -4.55543380795120E-11  1.16156423741293E-01
 cg2d: Sum(rhs),rhsMax =  -4.60751437003637E-11  1.14628316350756E-01
 cg2d: Sum(rhs),rhsMax =  -4.66303662349787E-11  1.13053954130304E-01
 cg2d: Sum(rhs),rhsMax =  -4.72519801064664E-11  1.11434240916552E-01
 cg2d: Sum(rhs),rhsMax =  -4.78999062636376E-11  1.09770098680121E-01
 cg2d: Sum(rhs),rhsMax =  -4.85750328849122E-11  1.08062466698779E-01
 cg2d: Sum(rhs),rhsMax =  -4.93156626646396E-11  1.06312300740568E-01
 cg2d: Sum(rhs),rhsMax =  -5.00895991351058E-11  1.04520571934397E-01
 cg2d: Sum(rhs),rhsMax =  -5.08965092294034E-11  1.02688265426165E-01
 cg2d: Sum(rhs),rhsMax =  -5.17254017395885E-11  1.00816378662748E-01
 cg2d: Sum(rhs),rhsMax =  -5.26926280386419E-11  9.89059202646093E-02
 cg2d: Sum(rhs),rhsMax =  -5.35954614022671E-11  9.69579092695687E-02
 cg2d: Sum(rhs),rhsMax =  -5.46374057108778E-11  9.49733742382149E-02
 cg2d: Sum(rhs),rhsMax =  -5.53236345623986E-11  9.35955242980782E-02
 cg2d: Sum(rhs),rhsMax =  -5.51088064071337E-11  9.37318283212620E-02
 cg2d: Sum(rhs),rhsMax =  -5.49185141807129E-11  9.38706170343907E-02
 cg2d: Sum(rhs),rhsMax =  -5.47492051694576E-11  9.40124801908023E-02
 cg2d: Sum(rhs),rhsMax =  -5.45158362896814E-11  9.41561231116240E-02
 cg2d: Sum(rhs),rhsMax =  -5.43730616087146E-11  9.43012510127054E-02
 cg2d: Sum(rhs),rhsMax =  -5.42457190277901E-11  9.44470768805718E-02
 cg2d: Sum(rhs),rhsMax =  -5.40915090496696E-11  9.45927060043162E-02
 cg2d: Sum(rhs),rhsMax =  -5.39978062263913E-11  9.47392847343692E-02
 cg2d: Sum(rhs),rhsMax =  -5.38610267497575E-11  9.48894792816615E-02
 cg2d: Sum(rhs),rhsMax =  -5.37065947270321E-11  9.50291150535295E-02
 cg2d: Sum(rhs),rhsMax =  -5.35993471828533E-11  9.51483435335210E-02
 cg2d: Sum(rhs),rhsMax =  -5.34986499545198E-11  9.52466196687060E-02
 cg2d: Sum(rhs),rhsMax =  -5.34218780323670E-11  9.53230925342177E-02
 cg2d: Sum(rhs),rhsMax =  -5.33430521976186E-11  9.53802348132773E-02
 cg2d: Sum(rhs),rhsMax =  -5.32802135744248E-11  9.54262743361808E-02
 cg2d: Sum(rhs),rhsMax =  -5.31981125817538E-11  9.54631636462714E-02
 cg2d: Sum(rhs),rhsMax =  -5.31337751574767E-11  9.54899366967416E-02
 cg2d: Sum(rhs),rhsMax =  -5.30759325378938E-11  9.55069477523612E-02
 cg2d: Sum(rhs),rhsMax =  -5.30238630780389E-11  9.55116876846698E-02
 cg2d: Sum(rhs),rhsMax =  -5.29669641480268E-11  9.55074218620877E-02
 cg2d: Sum(rhs),rhsMax =  -5.29338795018930E-11  9.54753896012879E-02
 cg2d: Sum(rhs),rhsMax =  -5.28948551625774E-11  9.54264907876749E-02
 cg2d: Sum(rhs),rhsMax =  -5.29010724115153E-11  9.53538299596297E-02
 cg2d: Sum(rhs),rhsMax =  -5.28855292891706E-11  9.52608776301188E-02
 cg2d: Sum(rhs),rhsMax =  -5.28803945076817E-11  9.51505315361629E-02
 cg2d: Sum(rhs),rhsMax =  -5.29042365471355E-11  9.50247440431665E-02
 cg2d: Sum(rhs),rhsMax =  -5.29509214253210E-11  9.48847413877430E-02
 cg2d: Sum(rhs),rhsMax =  -5.29672139482074E-11  9.47347716205517E-02
 cg2d: Sum(rhs),rhsMax =  -5.30089583339333E-11  9.45719294244627E-02
 cg2d: Sum(rhs),rhsMax =  -5.30516741648057E-11  9.44024709111718E-02
 cg2d: Sum(rhs),rhsMax =  -5.30774313389770E-11  9.42256021956547E-02
 cg2d: Sum(rhs),rhsMax =  -5.31177601903465E-11  9.40403288905117E-02
 cg2d: Sum(rhs),rhsMax =  -5.31817923032918E-11  9.38505005784670E-02
 cg2d: Sum(rhs),rhsMax =  -5.32613883552635E-11  9.36555680129657E-02
 cg2d: Sum(rhs),rhsMax =  -5.33282897008380E-11  9.34567723329817E-02
 cg2d: Sum(rhs),rhsMax =  -5.33878959920950E-11  9.32553890267304E-02
 cg2d: Sum(rhs),rhsMax =  -5.34247472649962E-11  9.30523179570489E-02
 cg2d: Sum(rhs),rhsMax =  -5.34793043183157E-11  9.28478988077313E-02
 cg2d: Sum(rhs),rhsMax =  -5.35457927997030E-11  9.26458660072508E-02
 cg2d: Sum(rhs),rhsMax =  -5.35990418715215E-11  9.24453437151589E-02
 cg2d: Sum(rhs),rhsMax =  -5.36611866053249E-11  9.22463369057674E-02
 cg2d: Sum(rhs),rhsMax =  -5.37145050660826E-11  9.20504173672317E-02
 cg2d: Sum(rhs),rhsMax =  -5.37562216962328E-11  9.18573345237665E-02
 cg2d: Sum(rhs),rhsMax =  -5.38157296503528E-11  9.16670555277326E-02
 cg2d: Sum(rhs),rhsMax =  -5.38771249836145E-11  9.14801585776091E-02
 cg2d: Sum(rhs),rhsMax =  -5.39341349359290E-11  9.12962815754716E-02
 cg2d: Sum(rhs),rhsMax =  -5.39850941727593E-11  9.11157661374494E-02
 cg2d: Sum(rhs),rhsMax =  -5.40460454168112E-11  9.09406776184970E-02
 cg2d: Sum(rhs),rhsMax =  -5.40887334921081E-11  9.07694463189335E-02
 cg2d: Sum(rhs),rhsMax =  -5.41354183702936E-11  9.05995417120413E-02
 cg2d: Sum(rhs),rhsMax =  -5.41903744100125E-11  9.04297702867868E-02
 cg2d: Sum(rhs),rhsMax =  -5.41461320224812E-11  9.02627990691522E-02
 cg2d: Sum(rhs),rhsMax =  -5.41241496065936E-11  9.01015201812789E-02
 cg2d: Sum(rhs),rhsMax =  -5.41069411497119E-11  8.99469512187003E-02
 cg2d: Sum(rhs),rhsMax =  -5.40696376560845E-11  8.97977822035443E-02
 cg2d: Sum(rhs),rhsMax =  -5.40457678610551E-11  8.96529378013319E-02
 cg2d: Sum(rhs),rhsMax =  -5.40246181124360E-11  8.95118628842164E-02
 cg2d: Sum(rhs),rhsMax =  -5.39966960033667E-11  8.93743603135330E-02
 cg2d: Sum(rhs),rhsMax =  -5.39494005025176E-11  8.92408491245137E-02
 cg2d: Sum(rhs),rhsMax =  -5.39572830859925E-11  8.91118457012120E-02
 cg2d: Sum(rhs),rhsMax =  -5.39129851873099E-11  8.89873626977399E-02
 cg2d: Sum(rhs),rhsMax =  -5.38874500577435E-11  8.88677026667702E-02
 cg2d: Sum(rhs),rhsMax =  -5.38648015080412E-11  8.87529957644890E-02
 cg2d: Sum(rhs),rhsMax =  -5.38183941856119E-11  8.86440938896138E-02
 cg2d: Sum(rhs),rhsMax =  -5.37743183315342E-11  8.85411090258943E-02
 cg2d: Sum(rhs),rhsMax =  -5.37532240940664E-11  8.84445706220745E-02
 cg2d: Sum(rhs),rhsMax =  -5.37869748740150E-11  8.83400560302684E-02
 cg2d: Sum(rhs),rhsMax =  -5.37307975889689E-11  8.82527162653416E-02
 cg2d: Sum(rhs),rhsMax =  -5.37168087788586E-11  8.81627742143384E-02
 cg2d: Sum(rhs),rhsMax =  -5.36625188729545E-11  8.80827753335020E-02
 cg2d: Sum(rhs),rhsMax =  -5.36035660303469E-11  8.80142431382914E-02
 cg2d: Sum(rhs),rhsMax =  -5.35911315324711E-11  8.79557258761200E-02
 cg2d: Sum(rhs),rhsMax =  -5.34932098616991E-11  8.79072388947251E-02
 cg2d: Sum(rhs),rhsMax =  -5.34583488587259E-11  8.78694232303038E-02
 cg2d: Sum(rhs),rhsMax =  -5.34041699751242E-11  8.78426371847018E-02
 cg2d: Sum(rhs),rhsMax =  -5.33159072446665E-11  8.78271004305015E-02
 cg2d: Sum(rhs),rhsMax =  -5.32541788444973E-11  8.78234730304722E-02
 cg2d: Sum(rhs),rhsMax =  -5.31661381586446E-11  8.78318529561721E-02
 cg2d: Sum(rhs),rhsMax =  -5.30917532159947E-11  8.78526683983496E-02
 cg2d: Sum(rhs),rhsMax =  -5.29760679768287E-11  8.78854102329869E-02
 cg2d: Sum(rhs),rhsMax =  -5.29296606543994E-11  8.79278250853274E-02
 cg2d: Sum(rhs),rhsMax =  -5.24834620208026E-11  8.85387658077177E-02
 cg2d: Sum(rhs),rhsMax =  -5.17194065352555E-11  8.97859034087224E-02
 cg2d: Sum(rhs),rhsMax =  -5.09789988001330E-11  9.09885954876839E-02
 cg2d: Sum(rhs),rhsMax =  -5.02780039823847E-11  9.21464187111314E-02
 cg2d: Sum(rhs),rhsMax =  -4.96522822857060E-11  9.32589700454134E-02
 cg2d: Sum(rhs),rhsMax =  -4.90214535631139E-11  9.43258672249760E-02
 cg2d: Sum(rhs),rhsMax =  -4.84529083522034E-11  9.53467491727840E-02
 cg2d: Sum(rhs),rhsMax =  -4.78984629737056E-11  9.63212763397391E-02
 cg2d: Sum(rhs),rhsMax =  -4.73338035433812E-11  9.72491309802325E-02
 cg2d: Sum(rhs),rhsMax =  -4.68507455053668E-11  9.81300171520886E-02
 cg2d: Sum(rhs),rhsMax =  -4.63744598278026E-11  9.89636605163854E-02
 cg2d: Sum(rhs),rhsMax =  -4.59032811761517E-11  9.97498081078653E-02
 cg2d: Sum(rhs),rhsMax =  -4.55185888981191E-11  1.00488227764134E-01
 cg2d: Sum(rhs),rhsMax =  -4.51577664151159E-11  1.01178707443213E-01
 cg2d: Sum(rhs),rhsMax =  -4.48344694703451E-11  1.01821054434200E-01
 cg2d: Sum(rhs),rhsMax =  -4.45041781205191E-11  1.02415094469603E-01
 cg2d: Sum(rhs),rhsMax =  -4.42689218616010E-11  1.02960670773440E-01
 cg2d: Sum(rhs),rhsMax =  -4.40031344695058E-11  1.03457643051517E-01
 cg2d: Sum(rhs),rhsMax =  -4.37951896969935E-11  1.03905886468928E-01
 cg2d: Sum(rhs),rhsMax =  -4.35910196827649E-11  1.04305290686253E-01
 cg2d: Sum(rhs),rhsMax =  -4.34342561916878E-11  1.04655758992314E-01
 cg2d: Sum(rhs),rhsMax =  -4.32217595047746E-11  1.04957207561381E-01
 cg2d: Sum(rhs),rhsMax =  -4.30611102331113E-11  1.05209564766380E-01
 cg2d: Sum(rhs),rhsMax =  -4.29062341211761E-11  1.05412770785793E-01
 cg2d: Sum(rhs),rhsMax =  -4.27070601105584E-11  1.05566777348606E-01
 cg2d: Sum(rhs),rhsMax =  -4.26073620829470E-11  1.05671547562003E-01
 cg2d: Sum(rhs),rhsMax =  -4.25997015440771E-11  1.05727055817452E-01
 cg2d: Sum(rhs),rhsMax =  -4.25555146676970E-11  1.05733287772250E-01
 cg2d: Sum(rhs),rhsMax =  -4.25784962843068E-11  1.05690240400864E-01
 cg2d: Sum(rhs),rhsMax =  -4.26149115995145E-11  1.05597921965055E-01
 cg2d: Sum(rhs),rhsMax =  -4.27028412630648E-11  1.05456352177528E-01
 cg2d: Sum(rhs),rhsMax =  -4.27442525818833E-11  1.05265562762145E-01
 cg2d: Sum(rhs),rhsMax =  -4.28754809433940E-11  1.05025597822300E-01
 cg2d: Sum(rhs),rhsMax =  -4.30128155315401E-11  1.04736514315532E-01
 cg2d: Sum(rhs),rhsMax =  -4.32180957687933E-11  1.04398382430628E-01
 cg2d: Sum(rhs),rhsMax =  -4.34136060434298E-11  1.04011286784822E-01
 cg2d: Sum(rhs),rhsMax =  -4.36332081577007E-11  1.03575327889930E-01
 cg2d: Sum(rhs),rhsMax =  -4.38726832641123E-11  1.03090623778626E-01
 cg2d: Sum(rhs),rhsMax =  -4.41642278303789E-11  1.02557311969736E-01
 cg2d: Sum(rhs),rhsMax =  -4.44820846823291E-11  1.01975551973922E-01
 cg2d: Sum(rhs),rhsMax =  -4.47846204565394E-11  1.01345527233241E-01
 cg2d: Sum(rhs),rhsMax =  -4.51423343150736E-11  1.00667447408854E-01
 cg2d: Sum(rhs),rhsMax =  -4.55554483025367E-11  9.99415508598646E-02
 cg2d: Sum(rhs),rhsMax =  -4.59988713785719E-11  9.91681068805934E-02
 cg2d: Sum(rhs),rhsMax =  -4.64577265546495E-11  9.83474180753658E-02
 cg2d: Sum(rhs),rhsMax =  -4.69729810603781E-11  9.74798213939655E-02
 cg2d: Sum(rhs),rhsMax =  -4.74948969042543E-11  9.65656886078631E-02
 cg2d: Sum(rhs),rhsMax =  -4.80645523381895E-11  9.56054261737409E-02
 cg2d: Sum(rhs),rhsMax =  -4.86829465629057E-11  9.45994741581495E-02
 cg2d: Sum(rhs),rhsMax =  -4.93213248020652E-11  9.35483043088150E-02
 cg2d: Sum(rhs),rhsMax =  -4.99399410713863E-11  9.24524175565676E-02
 cg2d: Sum(rhs),rhsMax =  -5.06186204063397E-11  9.13123408245037E-02
 cg2d: Sum(rhs),rhsMax =  -5.08089126327604E-11  9.11080450923833E-02
 cg2d: Sum(rhs),rhsMax =  -5.09021713668290E-11  9.10662646073057E-02
 cg2d: Sum(rhs),rhsMax =  -5.10042008627920E-11  9.10263730756058E-02
 cg2d: Sum(rhs),rhsMax =  -5.11106712508536E-11  9.09882526604017E-02
 cg2d: Sum(rhs),rhsMax =  -5.12315745382352E-11  9.09521589844750E-02
 cg2d: Sum(rhs),rhsMax =  -5.13057374362802E-11  9.09165046369088E-02
 cg2d: Sum(rhs),rhsMax =  -5.14035480847497E-11  9.08823098019389E-02
 cg2d: Sum(rhs),rhsMax =  -5.15123499411629E-11  9.08497594139638E-02
 cg2d: Sum(rhs),rhsMax =  -5.15950615564975E-11  9.08194292893979E-02
 cg2d: Sum(rhs),rhsMax =  -5.17065279481699E-11  9.07909637008480E-02
 cg2d: Sum(rhs),rhsMax =  -5.18256548787122E-11  9.07642304868143E-02
 cg2d: Sum(rhs),rhsMax =  -5.19240206386939E-11  9.07393828257289E-02
 cg2d: Sum(rhs),rhsMax =  -5.20440357476559E-11  9.07166266863049E-02
 cg2d: Sum(rhs),rhsMax =  -5.20374854318106E-11  9.06757608769212E-02
 cg2d: Sum(rhs),rhsMax =  -5.21427345745451E-11  9.06527084077604E-02
 cg2d: Sum(rhs),rhsMax =  -5.22383247769653E-11  9.06230493086515E-02
 cg2d: Sum(rhs),rhsMax =  -5.23597831758593E-11  9.05962356240073E-02
 cg2d: Sum(rhs),rhsMax =  -5.24777998833770E-11  9.05719420259103E-02
 cg2d: Sum(rhs),rhsMax =  -5.25770538217785E-11  9.05484112098036E-02
 cg2d: Sum(rhs),rhsMax =  -5.27168309005788E-11  9.05253938624163E-02
 cg2d: Sum(rhs),rhsMax =  -5.28174171066098E-11  9.05029394903672E-02
 cg2d: Sum(rhs),rhsMax =  -5.29167820673138E-11  9.04810362736422E-02
 cg2d: Sum(rhs),rhsMax =  -5.30179233848571E-11  9.05177165069573E-02
 cg2d: Sum(rhs),rhsMax =  -5.31569233075402E-11  9.04636935817857E-02
 cg2d: Sum(rhs),rhsMax =  -5.32849320222795E-11  9.04407734597787E-02
 cg2d: Sum(rhs),rhsMax =  -5.34087218895252E-11  9.04177040095719E-02
 cg2d: Sum(rhs),rhsMax =  -5.35486099906279E-11  9.03921070247195E-02
 cg2d: Sum(rhs),rhsMax =  -5.36765076830648E-11  9.03652341578804E-02
 cg2d: Sum(rhs),rhsMax =  -5.38293298824044E-11  9.03380633268308E-02
 cg2d: Sum(rhs),rhsMax =  -5.39766009666209E-11  9.03058654974377E-02
 cg2d: Sum(rhs),rhsMax =  -5.41115485752641E-11  9.02735254934006E-02
 cg2d: Sum(rhs),rhsMax =  -5.42598743713540E-11  9.02405991575843E-02
 cg2d: Sum(rhs),rhsMax =  -5.44203571095636E-11  9.02068530838358E-02
 cg2d: Sum(rhs),rhsMax =  -5.45569145415925E-11  9.01724253444445E-02
 cg2d: Sum(rhs),rhsMax =  -5.47126233207962E-11  9.01367681467479E-02
 cg2d: Sum(rhs),rhsMax =  -5.48491807528251E-11  9.01002444678320E-02
 cg2d: Sum(rhs),rhsMax =  -5.50207379657053E-11  9.00629061722117E-02
 cg2d: Sum(rhs),rhsMax =  -5.50787193631663E-11  9.00255021984381E-02
 cg2d: Sum(rhs),rhsMax =  -5.51658996261750E-11  8.99890086512352E-02
 cg2d: Sum(rhs),rhsMax =  -5.52345669202481E-11  8.99526942235569E-02
 cg2d: Sum(rhs),rhsMax =  -5.52963508315685E-11  8.99176105065810E-02
 cg2d: Sum(rhs),rhsMax =  -5.53815188153450E-11  8.98846207008579E-02
 cg2d: Sum(rhs),rhsMax =  -5.54574025590782E-11  8.98527597245521E-02
 cg2d: Sum(rhs),rhsMax =  -5.55201024043939E-11  8.98222210207220E-02
 cg2d: Sum(rhs),rhsMax =  -5.55870904861422E-11  8.97921184039263E-02
 cg2d: Sum(rhs),rhsMax =  -5.56748085134284E-11  8.97649960852156E-02
 cg2d: Sum(rhs),rhsMax =  -5.57522084054796E-11  8.97428353047053E-02
 cg2d: Sum(rhs),rhsMax =  -5.58279013296303E-11  8.97264133225625E-02
 cg2d: Sum(rhs),rhsMax =  -5.59015472800795E-11  8.97154178017352E-02
 cg2d: Sum(rhs),rhsMax =  -5.59496407537274E-11  8.97096096543338E-02
 cg2d: Sum(rhs),rhsMax =  -5.60155533069207E-11  8.97085764709271E-02
 cg2d: Sum(rhs),rhsMax =  -5.60653190539995E-11  8.97133141232434E-02
 cg2d: Sum(rhs),rhsMax =  -5.61179436253667E-11  8.97248390359160E-02
 cg2d: Sum(rhs),rhsMax =  -5.61738988658078E-11  8.97434189779418E-02
 cg2d: Sum(rhs),rhsMax =  -5.62033752871116E-11  8.97684976427055E-02
 cg2d: Sum(rhs),rhsMax =  -5.62461743847109E-11  8.98000398653805E-02
 cg2d: Sum(rhs),rhsMax =  -5.62819513216795E-11  8.98393350718228E-02
 cg2d: Sum(rhs),rhsMax =  -5.63037116929621E-11  8.98862653536387E-02
 cg2d: Sum(rhs),rhsMax =  -5.63227797734100E-11  8.99411423252977E-02
 cg2d: Sum(rhs),rhsMax =  -5.63221691507465E-11  9.00038484432862E-02
 cg2d: Sum(rhs),rhsMax =  -5.63428748101558E-11  9.00771375613933E-02
 cg2d: Sum(rhs),rhsMax =  -5.63430968547607E-11  9.01635700023952E-02
 cg2d: Sum(rhs),rhsMax =  -5.63203927939071E-11  9.02632757258835E-02
 cg2d: Sum(rhs),rhsMax =  -5.63010194021274E-11  9.03743494935074E-02
 cg2d: Sum(rhs),rhsMax =  -5.62812574322891E-11  9.04940189499821E-02
 cg2d: Sum(rhs),rhsMax =  -5.62515034552291E-11  9.06217275354309E-02
 cg2d: Sum(rhs),rhsMax =  -5.62290214389805E-11  9.07574606514347E-02
 cg2d: Sum(rhs),rhsMax =  -5.61596880110926E-11  9.08996347845046E-02
 cg2d: Sum(rhs),rhsMax =  -5.61066193505155E-11  9.10470866903326E-02
 cg2d: Sum(rhs),rhsMax =  -5.60657631432093E-11  9.11977379375341E-02
 cg2d: Sum(rhs),rhsMax =  -5.60035351426791E-11  9.13501080941224E-02
 cg2d: Sum(rhs),rhsMax =  -5.59786661469275E-11  9.15066858603039E-02
 cg2d: Sum(rhs),rhsMax =  -5.59263746424676E-11  9.16648294814933E-02
 cg2d: Sum(rhs),rhsMax =  -5.58644241976936E-11  9.18243128559828E-02
 cg2d: Sum(rhs),rhsMax =  -5.58723067811684E-11  9.19851637857695E-02
 cg2d: Sum(rhs),rhsMax =  -5.59289281554243E-11  9.21455750987438E-02
 cg2d: Sum(rhs),rhsMax =  -5.59121637877524E-11  9.23047552178671E-02
 cg2d: Sum(rhs),rhsMax =  -5.59312596237760E-11  9.24624166501599E-02
 cg2d: Sum(rhs),rhsMax =  -5.59609025785335E-11  9.26177368263723E-02
 cg2d: Sum(rhs),rhsMax =  -5.59730040095019E-11  9.27655677797753E-02
 cg2d: Sum(rhs),rhsMax =  -5.59932100685501E-11  9.29158877063393E-02
 cg2d: Sum(rhs),rhsMax =  -5.60251844916593E-11  9.30612176587639E-02
 cg2d: Sum(rhs),rhsMax =  -5.60175239527894E-11  9.32030986014384E-02
 cg2d: Sum(rhs),rhsMax =  -5.60390622794671E-11  9.33403252626664E-02
 cg2d: Sum(rhs),rhsMax =  -5.60614887845645E-11  9.34728178690267E-02
 cg2d: Sum(rhs),rhsMax =  -5.60925750292540E-11  9.36003839769677E-02
 cg2d: Sum(rhs),rhsMax =  -5.61334312365602E-11  9.37227742712954E-02
 cg2d: Sum(rhs),rhsMax =  -5.61611868121759E-11  9.38393771350111E-02
 cg2d: Sum(rhs),rhsMax =  -5.61828361611560E-11  9.39790183087625E-02
 cg2d: Sum(rhs),rhsMax =  -5.52795587083210E-11  9.56955731308474E-02
 cg2d: Sum(rhs),rhsMax =  -5.44091438570149E-11  9.73736755003270E-02
 cg2d: Sum(rhs),rhsMax =  -5.35819166813667E-11  9.90125293898731E-02
 cg2d: Sum(rhs),rhsMax =  -5.28187493742394E-11  1.00611352975202E-01
 cg2d: Sum(rhs),rhsMax =  -5.20806731074686E-11  1.02169377411087E-01
 cg2d: Sum(rhs),rhsMax =  -5.14130960027614E-11  1.03685845773595E-01
 cg2d: Sum(rhs),rhsMax =  -5.07548447714612E-11  1.05160012259472E-01
 cg2d: Sum(rhs),rhsMax =  -5.01237940042643E-11  1.06591141692912E-01
 cg2d: Sum(rhs),rhsMax =  -4.95344876227932E-11  1.07978509426575E-01
 cg2d: Sum(rhs),rhsMax =  -4.89805973558077E-11  1.09321401680779E-01
 cg2d: Sum(rhs),rhsMax =  -4.84857709537323E-11  1.10619116323465E-01
 cg2d: Sum(rhs),rhsMax =  -4.79677408904422E-11  1.11870964098750E-01
 cg2d: Sum(rhs),rhsMax =  -4.75123274057410E-11  1.13076270232412E-01
 cg2d: Sum(rhs),rhsMax =  -4.70873340319145E-11  1.14234376390807E-01
 cg2d: Sum(rhs),rhsMax =  -4.66748861782662E-11  1.15344642920130E-01
 cg2d: Sum(rhs),rhsMax =  -4.63638016867662E-11  1.16406451273747E-01
 cg2d: Sum(rhs),rhsMax =  -4.60538274182909E-11  1.17419206481549E-01
 cg2d: Sum(rhs),rhsMax =  -4.57640592088637E-11  1.18382339590787E-01
 cg2d: Sum(rhs),rhsMax =  -4.54736248656218E-11  1.19295309960896E-01
 cg2d: Sum(rhs),rhsMax =  -4.52005100015640E-11  1.20157607375015E-01
 cg2d: Sum(rhs),rhsMax =  -4.49720261030961E-11  1.20968753720227E-01
 cg2d: Sum(rhs),rhsMax =  -4.47183401419693E-11  1.21728304240813E-01
 cg2d: Sum(rhs),rhsMax =  -4.44891901096867E-11  1.22435848460905E-01
 cg2d: Sum(rhs),rhsMax =  -4.43298731056530E-11  1.23091010517297E-01
 cg2d: Sum(rhs),rhsMax =  -4.41656711203109E-11  1.23693449136827E-01
 cg2d: Sum(rhs),rhsMax =  -4.39968061982654E-11  1.24242857287097E-01
 cg2d: Sum(rhs),rhsMax =  -4.38722391749025E-11  1.24738961572376E-01
 cg2d: Sum(rhs),rhsMax =  -4.37785363516241E-11  1.25181521381855E-01
 cg2d: Sum(rhs),rhsMax =  -4.37392344565524E-11  1.25570327954040E-01
 cg2d: Sum(rhs),rhsMax =  -4.36986002938511E-11  1.25905203460861E-01
 cg2d: Sum(rhs),rhsMax =  -4.36388702951263E-11  1.26186000180556E-01
 cg2d: Sum(rhs),rhsMax =  -4.36323199792810E-11  1.26412599842518E-01
 cg2d: Sum(rhs),rhsMax =  -4.35976810209127E-11  1.26584913327315E-01
 cg2d: Sum(rhs),rhsMax =  -4.36263247749480E-11  1.26702880583016E-01
 cg2d: Sum(rhs),rhsMax =  -4.36505276368848E-11  1.26766470758703E-01
 cg2d: Sum(rhs),rhsMax =  -4.36358726929598E-11  1.26775682530077E-01
 cg2d: Sum(rhs),rhsMax =  -4.36963798478018E-11  1.26730544568306E-01
 cg2d: Sum(rhs),rhsMax =  -4.37097025240973E-11  1.26631116078949E-01
 cg2d: Sum(rhs),rhsMax =  -4.37373470774105E-11  1.26477487201212E-01
 cg2d: Sum(rhs),rhsMax =  -4.37231362226953E-11  1.26269779468913E-01
 cg2d: Sum(rhs),rhsMax =  -4.38101777078259E-11  1.26008146256735E-01
 cg2d: Sum(rhs),rhsMax =  -4.38236114064239E-11  1.25692772921290E-01
 cg2d: Sum(rhs),rhsMax =  -4.38917791001359E-11  1.25323876471990E-01
 cg2d: Sum(rhs),rhsMax =  -4.39940306407038E-11  1.24901705169776E-01
 cg2d: Sum(rhs),rhsMax =  -4.41323644295721E-11  1.24426538285140E-01
(PID.TID 0000.0001)      cg2d_init_res =   2.28843726825377E-02
(PID.TID 0000.0001)      cg2d_iters(min,last) =      -1      37
(PID.TID 0000.0001)      cg2d_last_res =   4.79274805483694E-14
(PID.TID 0000.0001) // =======================================================
(PID.TID 0000.0001) // Begin MONITOR dynamic field statistics
(PID.TID 0000.0001) // =======================================================
(PID.TID 0000.0001) %MON time_tsnumber                =                  3360
(PID.TID 0000.0001) %MON time_secondsf                =   5.0400000000000E+04
(PID.TID 0000.0001) %MON dynstat_eta_max              =   2.1642210219178E-02
(PID.TID 0000.0001) %MON dynstat_eta_min              =  -2.0548834408550E-02
(PID.TID 0000.0001) %MON dynstat_eta_mean             =   1.2095816610989E-14
(PID.TID 0000.0001) %MON dynstat_eta_sd               =   1.5271460849902E-02
(PID.TID 0000.0001) %MON dynstat_eta_del2             =   7.3574014695997E-05
(PID.TID 0000.0001) %MON dynstat_uvel_max             =   1.2693722517004E+00
(PID.TID 0000.0001) %MON dynstat_uvel_min             =  -6.7089835619470E-01
(PID.TID 0000.0001) %MON dynstat_uvel_mean            =   4.5373144414144E-01
(PID.TID 0000.0001) %MON dynstat_uvel_sd              =   5.7440279659429E-02
(PID.TID 0000.0001) %MON dynstat_uvel_del2            =   8.3387803991780E-04
(PID.TID 0000.0001) %MON dynstat_vvel_max             =   0.0000000000000E+00
(PID.TID 0000.0001) %MON dynstat_vvel_min             =   0.0000000000000E+00
(PID.TID 0000.0001) %MON dynstat_vvel_mean            =   0.0000000000000E+00
(PID.TID 0000.0001) %MON dynstat_vvel_sd              =   0.0000000000000E+00
(PID.TID 0000.0001) %MON dynstat_vvel_del2            =   0.0000000000000E+00
(PID.TID 0000.0001) %MON dynstat_wvel_max             =   3.5857721148239E-02
(PID.TID 0000.0001) %MON dynstat_wvel_min             =  -6.3408023077875E-02
(PID.TID 0000.0001) %MON dynstat_wvel_mean            =   2.8139884131677E-20
(PID.TID 0000.0001) %MON dynstat_wvel_sd              =   4.1174176857706E-03
(PID.TID 0000.0001) %MON dynstat_wvel_del2            =   1.2884678213673E-04
(PID.TID 0000.0001) %MON dynstat_theta_max            =   1.5000000000006E+01
(PID.TID 0000.0001) %MON dynstat_theta_min            =   9.9999999999937E+00
(PID.TID 0000.0001) %MON dynstat_theta_mean           =   1.1002176696332E+01
(PID.TID 0000.0001) %MON dynstat_theta_sd             =   1.9071666440286E+00
(PID.TID 0000.0001) %MON dynstat_theta_del2           =   5.5951700309372E-04
(PID.TID 0000.0001) %MON dynstat_salt_max             =   3.5000000000000E+01
(PID.TID 0000.0001) %MON dynstat_salt_min             =   3.5000000000000E+01
(PID.TID 0000.0001) %MON dynstat_salt_mean            =   3.5000000000000E+01
(PID.TID 0000.0001) %MON dynstat_salt_sd              =   4.0500935938326E-13
(PID.TID 0000.0001) %MON dynstat_salt_del2            =   0.0000000000000E+00
(PID.TID 0000.0001) %MON dynstat_sst_max              =   1.5000000000006E+01
(PID.TID 0000.0001) %MON dynstat_sst_min              =   1.4999999999959E+01
(PID.TID 0000.0001) %MON dynstat_sst_mean             =   1.5000000000003E+01
(PID.TID 0000.0001) %MON dynstat_sst_sd               =   6.5725245859327E-12
(PID.TID 0000.0001) %MON dynstat_sst_del2             =   1.0559126626982E-13
(PID.TID 0000.0001) %MON dynstat_sss_max              =   3.5000000000000E+01
(PID.TID 0000.0001) %MON dynstat_sss_min              =   3.5000000000000E+01
(PID.TID 0000.0001) %MON dynstat_sss_mean             =   3.5000000000000E+01
(PID.TID 0000.0001) %MON dynstat_sss_sd               =   4.2632564145606E-14
(PID.TID 0000.0001) %MON dynstat_sss_del2             =   0.0000000000000E+00
(PID.TID 0000.0001) %MON forcing_qnet_max             =   0.0000000000000E+00
(PID.TID 0000.0001) %MON forcing_qnet_min             =   0.0000000000000E+00
(PID.TID 0000.0001) %MON forcing_qnet_mean            =   0.0000000000000E+00
(PID.TID 0000.0001) %MON forcing_qnet_sd              =   0.0000000000000E+00
(PID.TID 0000.0001) %MON forcing_qnet_del2            =   0.0000000000000E+00
(PID.TID 0000.0001) %MON forcing_qsw_max              =   0.0000000000000E+00
(PID.TID 0000.0001) %MON forcing_qsw_min              =   0.0000000000000E+00
(PID.TID 0000.0001) %MON forcing_qsw_mean             =   0.0000000000000E+00
(PID.TID 0000.0001) %MON forcing_qsw_sd               =   0.0000000000000E+00
(PID.TID 0000.0001) %MON forcing_qsw_del2             =   0.0000000000000E+00
(PID.TID 0000.0001) %MON forcing_empmr_max            =   0.0000000000000E+00
(PID.TID 0000.0001) %MON forcing_empmr_min            =   0.0000000000000E+00
(PID.TID 0000.0001) %MON forcing_empmr_mean           =   0.0000000000000E+00
(PID.TID 0000.0001) %MON forcing_empmr_sd             =   0.0000000000000E+00
(PID.TID 0000.0001) %MON forcing_empmr_del2           =   0.0000000000000E+00
(PID.TID 0000.0001) %MON forcing_fu_max               =   0.0000000000000E+00
(PID.TID 0000.0001) %MON forcing_fu_min               =   0.0000000000000E+00
(PID.TID 0000.0001) %MON forcing_fu_mean              =   0.0000000000000E+00
(PID.TID 0000.0001) %MON forcing_fu_sd                =   0.0000000000000E+00
(PID.TID 0000.0001) %MON forcing_fu_del2              =   0.0000000000000E+00
(PID.TID 0000.0001) %MON forcing_fv_max               =   0.0000000000000E+00
(PID.TID 0000.0001) %MON forcing_fv_min               =   0.0000000000000E+00
(PID.TID 0000.0001) %MON forcing_fv_mean              =   0.0000000000000E+00
(PID.TID 0000.0001) %MON forcing_fv_sd                =   0.0000000000000E+00
(PID.TID 0000.0001) %MON forcing_fv_del2              =   0.0000000000000E+00
(PID.TID 0000.0001) %MON advcfl_uvel_max              =   6.8970587054827E-02
(PID.TID 0000.0001) %MON advcfl_vvel_max              =   0.0000000000000E+00
(PID.TID 0000.0001) %MON advcfl_wvel_max              =   3.8434922616563E-01
(PID.TID 0000.0001) %MON advcfl_W_hf_max              =   3.8853071674581E-01
(PID.TID 0000.0001) %MON pe_b_mean                    =   5.7802261081530E-06
(PID.TID 0000.0001) %MON ke_max                       =   4.0702542050880E-01
(PID.TID 0000.0001) %MON ke_mean                      =   1.0460191228256E-01
(PID.TID 0000.0001) %MON ke_vol                       =   9.6656886657870E+10
(PID.TID 0000.0001) %MON vort_r_min                   =   0.0000000000000E+00
(PID.TID 0000.0001) %MON vort_r_max                   =   0.0000000000000E+00
(PID.TID 0000.0001) %MON vort_a_mean                  =   0.0000000000000E+00
(PID.TID 0000.0001) %MON vort_a_sd                    =   0.0000000000000E+00
(PID.TID 0000.0001) %MON vort_p_mean                  =   0.0000000000000E+00
(PID.TID 0000.0001) %MON vort_p_sd                    =   0.0000000000000E+00
(PID.TID 0000.0001) %MON surfExpan_theta_mean         =   1.2297401299926E-18
(PID.TID 0000.0001) %MON surfExpan_salt_mean          =   1.3603258223882E-18
(PID.TID 0000.0001) // =======================================================
(PID.TID 0000.0001) // End MONITOR dynamic field statistics
(PID.TID 0000.0001) // =======================================================
(PID.TID 0000.0001) // =======================================================
(PID.TID 0000.0001) // Begin OBCS MONITOR field statistics
(PID.TID 0000.0001) // =======================================================
(PID.TID 0000.0001) %MON obc_E_uVel_max               =   4.4822851314926E-01
(PID.TID 0000.0001) %MON obc_E_uVel_min               =   4.4822851314926E-01
(PID.TID 0000.0001) %MON obc_E_uVel_mean              =   4.4822851314926E-01
(PID.TID 0000.0001) %MON obc_E_uVel_sd                =  -1.9428902930940E-16
(PID.TID 0000.0001) %MON obc_E_uVel_Int               =   4.4822851314926E+05
(PID.TID 0000.0001) %MON obc_W_uVel_max               =   4.4822851314926E-01
(PID.TID 0000.0001) %MON obc_W_uVel_min               =   4.4822851314926E-01
(PID.TID 0000.0001) %MON obc_W_uVel_mean              =   4.4822851314926E-01
(PID.TID 0000.0001) %MON obc_W_uVel_sd                =  -1.9428902930940E-16
(PID.TID 0000.0001) %MON obc_W_uVel_Int               =   4.4822851314926E+05
(PID.TID 0000.0001) // =======================================================
(PID.TID 0000.0001) // End OBCS MONITOR field statistics
(PID.TID 0000.0001) // =======================================================
 cg2d: Sum(rhs),rhsMax =  -4.42726966198848E-11  1.23898685572666E-01
 cg2d: Sum(rhs),rhsMax =  -4.44412284750229E-11  1.23318486580593E-01
 cg2d: Sum(rhs),rhsMax =  -4.46211956273146E-11  1.22686310401721E-01
 cg2d: Sum(rhs),rhsMax =  -4.48056036717048E-11  1.22002554692403E-01
 cg2d: Sum(rhs),rhsMax =  -4.49963399873354E-11  1.21267644858391E-01
 cg2d: Sum(rhs),rhsMax =  -4.52096138303659E-11  1.20482033642526E-01
 cg2d: Sum(rhs),rhsMax =  -4.54606352562337E-11  1.19646201086300E-01
 cg2d: Sum(rhs),rhsMax =  -4.57230919792551E-11  1.18760654993101E-01
 cg2d: Sum(rhs),rhsMax =  -4.59776661188016E-11  1.17825930269349E-01
 cg2d: Sum(rhs),rhsMax =  -4.62908600340484E-11  1.16842588515787E-01
 cg2d: Sum(rhs),rhsMax =  -4.65852911801790E-11  1.15811217793127E-01
 cg2d: Sum(rhs),rhsMax =  -4.69420058379910E-11  1.14732432209353E-01
 cg2d: Sum(rhs),rhsMax =  -4.73596717398550E-11  1.13606871310859E-01
 cg2d: Sum(rhs),rhsMax =  -4.78043160612174E-11  1.12435199397085E-01
 cg2d: Sum(rhs),rhsMax =  -4.82811568502939E-11  1.11218104649005E-01
 cg2d: Sum(rhs),rhsMax =  -4.88081797200834E-11  1.09956297906168E-01
 cg2d: Sum(rhs),rhsMax =  -4.93310947646819E-11  1.08650511205620E-01
 cg2d: Sum(rhs),rhsMax =  -4.98717733776743E-11  1.07301496288158E-01
 cg2d: Sum(rhs),rhsMax =  -5.04436492576588E-11  1.05910023091313E-01
 cg2d: Sum(rhs),rhsMax =  -5.10665953967759E-11  1.04476878353552E-01
 cg2d: Sum(rhs),rhsMax =  -5.17111908848733E-11  1.03002864264303E-01
 cg2d: Sum(rhs),rhsMax =  -5.24169596616275E-11  1.01488797088324E-01
 cg2d: Sum(rhs),rhsMax =  -5.31423793859176E-11  9.99355067091908E-02
 cg2d: Sum(rhs),rhsMax =  -5.39434052981846E-11  9.83438360954811E-02
 cg2d: Sum(rhs),rhsMax =  -5.47750733659313E-11  9.67146407353305E-02
 cg2d: Sum(rhs),rhsMax =  -5.56440449273055E-11  9.50487881379473E-02
 cg2d: Sum(rhs),rhsMax =  -5.65677504837936E-11  9.33471571853311E-02
 cg2d: Sum(rhs),rhsMax =  -5.75435255001366E-11  9.16106380078512E-02
 cg2d: Sum(rhs),rhsMax =  -5.86153348081098E-11  8.98401322074424E-02
 cg2d: Sum(rhs),rhsMax =  -5.96993565693538E-11  8.80365528692474E-02
 cg2d: Sum(rhs),rhsMax =  -6.05973049516706E-11  8.65864005793970E-02
 cg2d: Sum(rhs),rhsMax =  -6.05591132796235E-11  8.64987804565364E-02
 cg2d: Sum(rhs),rhsMax =  -6.05192562730394E-11  8.64161032242261E-02
 cg2d: Sum(rhs),rhsMax =  -6.04746253074495E-11  8.63384963644478E-02
 cg2d: Sum(rhs),rhsMax =  -6.03903593798805E-11  8.62662588561911E-02
 cg2d: Sum(rhs),rhsMax =  -6.03239680430079E-11  8.61989875335533E-02
 cg2d: Sum(rhs),rhsMax =  -6.02603522636969E-11  8.61370531424962E-02
 cg2d: Sum(rhs),rhsMax =  -6.01546590317525E-11  8.60803126110395E-02
 cg2d: Sum(rhs),rhsMax =  -6.01668714850234E-11  8.60281993003373E-02
 cg2d: Sum(rhs),rhsMax =  -6.01495520058393E-11  8.59807741830621E-02
 cg2d: Sum(rhs),rhsMax =  -6.01227956309458E-11  8.59377722035868E-02
 cg2d: Sum(rhs),rhsMax =  -6.01196870064769E-11  8.58997599104496E-02
 cg2d: Sum(rhs),rhsMax =  -6.01008132150582E-11  8.58613064430293E-02
 cg2d: Sum(rhs),rhsMax =  -6.00461902422467E-11  8.58270844164673E-02
 cg2d: Sum(rhs),rhsMax =  -6.00351435231516E-11  8.57997255893427E-02
 cg2d: Sum(rhs),rhsMax =  -6.00069993694774E-11  8.57766500264852E-02
 cg2d: Sum(rhs),rhsMax =  -5.99846838866824E-11  8.57565767143725E-02
 cg2d: Sum(rhs),rhsMax =  -5.99449379024009E-11  8.57383941411505E-02
 cg2d: Sum(rhs),rhsMax =  -5.99215677077325E-11  8.57219836222208E-02
 cg2d: Sum(rhs),rhsMax =  -5.98991967137863E-11  8.57066299255987E-02
 cg2d: Sum(rhs),rhsMax =  -5.98455174305457E-11  8.56915586956547E-02
 cg2d: Sum(rhs),rhsMax =  -5.98175398103251E-11  8.56756154913530E-02
 cg2d: Sum(rhs),rhsMax =  -5.97831228965617E-11  8.56604656396526E-02
 cg2d: Sum(rhs),rhsMax =  -5.97492610943107E-11  8.56447844955601E-02
 cg2d: Sum(rhs),rhsMax =  -5.97249472100714E-11  8.56270504253692E-02
 cg2d: Sum(rhs),rhsMax =  -5.96919735862400E-11  8.56069204542645E-02
 cg2d: Sum(rhs),rhsMax =  -5.96417915055270E-11  8.55840343239179E-02
 cg2d: Sum(rhs),rhsMax =  -5.96094007487835E-11  8.55576939545809E-02
 cg2d: Sum(rhs),rhsMax =  -5.95813953729873E-11  8.55273980199849E-02
 cg2d: Sum(rhs),rhsMax =  -5.95546112425183E-11  8.54925171745023E-02
 cg2d: Sum(rhs),rhsMax =  -5.95191951280327E-11  8.54531511690366E-02
 cg2d: Sum(rhs),rhsMax =  -5.94947008325519E-11  8.54078042772926E-02
 cg2d: Sum(rhs),rhsMax =  -5.94657795227604E-11  8.53524623267634E-02
 cg2d: Sum(rhs),rhsMax =  -5.94521099017697E-11  8.52933117027921E-02
 cg2d: Sum(rhs),rhsMax =  -5.94454971358793E-11  8.52274469307492E-02
 cg2d: Sum(rhs),rhsMax =  -5.94505902840048E-11  8.51544518556921E-02
 cg2d: Sum(rhs),rhsMax =  -5.94482059065871E-11  8.50740647600665E-02
 cg2d: Sum(rhs),rhsMax =  -5.94588892011139E-11  8.49858513480673E-02
 cg2d: Sum(rhs),rhsMax =  -5.94784083096656E-11  8.48899047770890E-02
 cg2d: Sum(rhs),rhsMax =  -5.94978788459599E-11  8.47859976463962E-02
 cg2d: Sum(rhs),rhsMax =  -5.95186677720960E-11  8.46732242490075E-02
 cg2d: Sum(rhs),rhsMax =  -5.95448412799016E-11  8.45514901974797E-02
 cg2d: Sum(rhs),rhsMax =  -5.95695992533507E-11  8.44205164012571E-02
 cg2d: Sum(rhs),rhsMax =  -5.96345473002913E-11  8.42802207836532E-02
 cg2d: Sum(rhs),rhsMax =  -5.96748483960852E-11  8.41307409374551E-02
 cg2d: Sum(rhs),rhsMax =  -5.97237814758955E-11  8.39719053085396E-02
 cg2d: Sum(rhs),rhsMax =  -5.98086302705525E-11  8.38036909604270E-02
 cg2d: Sum(rhs),rhsMax =  -5.98847638144662E-11  8.36262071435931E-02
 cg2d: Sum(rhs),rhsMax =  -5.99565397330082E-11  8.34397736435600E-02
 cg2d: Sum(rhs),rhsMax =  -6.00545724260826E-11  8.32445486329344E-02
 cg2d: Sum(rhs),rhsMax =  -6.01488303608733E-11  8.30409693493680E-02
 cg2d: Sum(rhs),rhsMax =  -6.01571015224067E-11  8.28292275351404E-02
 cg2d: Sum(rhs),rhsMax =  -6.01741434458347E-11  8.26100575413181E-02
 cg2d: Sum(rhs),rhsMax =  -6.02080607592370E-11  8.23849666396396E-02
 cg2d: Sum(rhs),rhsMax =  -6.02055072462804E-11  8.21948524175683E-02
 cg2d: Sum(rhs),rhsMax =  -6.02879413058588E-11  8.19324147072869E-02
 cg2d: Sum(rhs),rhsMax =  -6.03272432009305E-11  8.16905025443383E-02
 cg2d: Sum(rhs),rhsMax =  -6.03812000399273E-11  8.14451228714828E-02
 cg2d: Sum(rhs),rhsMax =  -6.04140071303050E-11  8.11954279531318E-02
 cg2d: Sum(rhs),rhsMax =  -6.04980510132691E-11  8.09428837694355E-02
 cg2d: Sum(rhs),rhsMax =  -6.05782091156470E-11  8.06873380176006E-02
 cg2d: Sum(rhs),rhsMax =  -6.06533712144142E-11  8.04292590262777E-02
 cg2d: Sum(rhs),rhsMax =  -6.08126882184479E-11  8.01640329427428E-02
 cg2d: Sum(rhs),rhsMax =  -6.08750827524318E-11  7.99010743211534E-02
 cg2d: Sum(rhs),rhsMax =  -6.09697847764323E-11  7.96316732256419E-02
 cg2d: Sum(rhs),rhsMax =  -6.10699268932535E-11  7.93635739526483E-02
 cg2d: Sum(rhs),rhsMax =  -6.11634076719270E-11  7.90967607870317E-02
 cg2d: Sum(rhs),rhsMax =  -6.13014083938879E-11  7.88302380917447E-02
 cg2d: Sum(rhs),rhsMax =  -6.14046591351780E-11  7.85649218581975E-02
 cg2d: Sum(rhs),rhsMax =  -6.14793771447353E-11  7.83003339371858E-02
 cg2d: Sum(rhs),rhsMax =  -6.15859585550993E-11  7.80397179261480E-02
 cg2d: Sum(rhs),rhsMax =  -6.17277340353439E-11  7.77804621603425E-02
 cg2d: Sum(rhs),rhsMax =  -6.17965678628707E-11  7.75231483956797E-02
 cg2d: Sum(rhs),rhsMax =  -6.19093665221726E-11  7.72689327125778E-02
 cg2d: Sum(rhs),rhsMax =  -6.20353768354676E-11  7.70180609644376E-02
 cg2d: Sum(rhs),rhsMax =  -6.21341866846592E-11  7.67712855420901E-02
 cg2d: Sum(rhs),rhsMax =  -6.22685236706388E-11  7.65282937513483E-02
 cg2d: Sum(rhs),rhsMax =  -6.23606721816827E-11  7.62892095371781E-02
 cg2d: Sum(rhs),rhsMax =  -6.24589269193621E-11  7.60542117201225E-02
 cg2d: Sum(rhs),rhsMax =  -6.23465723492700E-11  7.60877774347275E-02
 cg2d: Sum(rhs),rhsMax =  -6.12404571498359E-11  7.73745125806349E-02
 cg2d: Sum(rhs),rhsMax =  -6.01988459081326E-11  7.86217401929562E-02
 cg2d: Sum(rhs),rhsMax =  -5.92256244047462E-11  7.98288996764844E-02
 cg2d: Sum(rhs),rhsMax =  -5.83147974353437E-11  8.09954520992504E-02
 cg2d: Sum(rhs),rhsMax =  -5.74726932711656E-11  8.21208831602527E-02
 cg2d: Sum(rhs),rhsMax =  -5.66571234372759E-11  8.32047057330858E-02
 cg2d: Sum(rhs),rhsMax =  -5.58991741783643E-11  8.42464619057213E-02
 cg2d: Sum(rhs),rhsMax =  -5.52089485239549E-11  8.52457243292029E-02
 cg2d: Sum(rhs),rhsMax =  -5.45774536675481E-11  8.62020969125717E-02
 cg2d: Sum(rhs),rhsMax =  -5.39426281420674E-11  8.71152148463644E-02
 cg2d: Sum(rhs),rhsMax =  -5.33085797727040E-11  8.79847439967097E-02
 cg2d: Sum(rhs),rhsMax =  -5.27868859734326E-11  8.88103797724994E-02
 cg2d: Sum(rhs),rhsMax =  -5.21995779934059E-11  8.95918453525502E-02
 cg2d: Sum(rhs),rhsMax =  -5.17230702712368E-11  9.03288896344708E-02
 cg2d: Sum(rhs),rhsMax =  -5.12467845936726E-11  9.10212850497943E-02
 cg2d: Sum(rhs),rhsMax =  -5.08413311450795E-11  9.16688252005832E-02
 cg2d: Sum(rhs),rhsMax =  -5.04543073986952E-11  9.22713226234927E-02
 cg2d: Sum(rhs),rhsMax =  -5.00790520163719E-11  9.28286067831201E-02
 cg2d: Sum(rhs),rhsMax =  -4.97678565025694E-11  9.33405223662599E-02
 cg2d: Sum(rhs),rhsMax =  -4.95270491285282E-11  9.38069279424784E-02
 cg2d: Sum(rhs),rhsMax =  -4.92589302680813E-11  9.42276950037903E-02
 cg2d: Sum(rhs),rhsMax =  -4.90522067408961E-11  9.46027073661417E-02
 cg2d: Sum(rhs),rhsMax =  -4.88655782504566E-11  9.49318609629815E-02
 cg2d: Sum(rhs),rhsMax =  -4.86753970463383E-11  9.52150639329553E-02
 cg2d: Sum(rhs),rhsMax =  -4.85271822725508E-11  9.54522370004054E-02
 cg2d: Sum(rhs),rhsMax =  -4.84237094866558E-11  9.56433141469931E-02
 cg2d: Sum(rhs),rhsMax =  -4.83170170539893E-11  9.57882433824046E-02
 cg2d: Sum(rhs),rhsMax =  -4.82418549552222E-11  9.58869875618208E-02
 cg2d: Sum(rhs),rhsMax =  -4.82230921861060E-11  9.59395252102205E-02
 cg2d: Sum(rhs),rhsMax =  -4.81267248275685E-11  9.59458513212440E-02
 cg2d: Sum(rhs),rhsMax =  -4.82055506623169E-11  9.59059781030975E-02
 cg2d: Sum(rhs),rhsMax =  -4.82476281149502E-11  9.58199355235608E-02
 cg2d: Sum(rhs),rhsMax =  -4.82964779280337E-11  9.56877719617949E-02
 cg2d: Sum(rhs),rhsMax =  -4.83635353987211E-11  9.55095548437532E-02
 cg2d: Sum(rhs),rhsMax =  -4.84591256011413E-11  9.52853711103721E-02
 cg2d: Sum(rhs),rhsMax =  -4.86355400397542E-11  9.50153275563376E-02
 cg2d: Sum(rhs),rhsMax =  -4.88400431208902E-11  9.46995508892356E-02
 cg2d: Sum(rhs),rhsMax =  -4.90570917222044E-11  9.43381880102640E-02
 cg2d: Sum(rhs),rhsMax =  -4.93407537049961E-11  9.39314063664311E-02
 cg2d: Sum(rhs),rhsMax =  -4.96130914129367E-11  9.34793941273757E-02
 cg2d: Sum(rhs),rhsMax =  -4.99317254210041E-11  9.29823603919946E-02
 cg2d: Sum(rhs),rhsMax =  -5.02597963247808E-11  9.24405353222370E-02
 cg2d: Sum(rhs),rhsMax =  -5.06457098481405E-11  9.18541696720825E-02
 cg2d: Sum(rhs),rhsMax =  -5.10822495414232E-11  9.12235344586864E-02
 cg2d: Sum(rhs),rhsMax =  -5.15313347548840E-11  9.05489207512151E-02
 cg2d: Sum(rhs),rhsMax =  -5.20117282576393E-11  8.98306393821173E-02
 cg2d: Sum(rhs),rhsMax =  -5.25596233202918E-11  8.90690207439861E-02
 cg2d: Sum(rhs),rhsMax =  -5.31429344974299E-11  8.82644141452593E-02
 cg2d: Sum(rhs),rhsMax =  -5.36898303593603E-11  8.74171869531531E-02
 cg2d: Sum(rhs),rhsMax =  -5.43649569806348E-11  8.65277238631460E-02
 cg2d: Sum(rhs),rhsMax =  -5.50299805723853E-11  8.55964258933328E-02
 cg2d: Sum(rhs),rhsMax =  -5.57037749260303E-11  8.46237095558358E-02
 cg2d: Sum(rhs),rhsMax =  -5.64558400029114E-11  8.36100060581712E-02
 cg2d: Sum(rhs),rhsMax =  -5.72749625504798E-11  8.25557604575083E-02
 cg2d: Sum(rhs),rhsMax =  -5.81240611197131E-11  8.14614308010040E-02
 cg2d: Sum(rhs),rhsMax =  -5.89951421048340E-11  8.03274872971439E-02
 cg2d: Sum(rhs),rhsMax =  -5.99836846859603E-11  7.91544116339685E-02
 cg2d: Sum(rhs),rhsMax =  -6.09728934009013E-11  7.79426963185701E-02
 cg2d: Sum(rhs),rhsMax =  -6.16950934784199E-11  7.71558103527484E-02
 cg2d: Sum(rhs),rhsMax =  -6.17061957086662E-11  7.72453117178034E-02
 cg2d: Sum(rhs),rhsMax =  -6.17442763584108E-11  7.73392385427036E-02
 cg2d: Sum(rhs),rhsMax =  -6.17591533469408E-11  7.74389198688255E-02
 cg2d: Sum(rhs),rhsMax =  -6.17698114879772E-11  7.75448581090283E-02
 cg2d: Sum(rhs),rhsMax =  -6.17946804837288E-11  7.76680571627386E-02
 cg2d: Sum(rhs),rhsMax =  -6.17609297037802E-11  7.77890289666516E-02
 cg2d: Sum(rhs),rhsMax =  -6.18237683269740E-11  7.79161859504037E-02
 cg2d: Sum(rhs),rhsMax =  -6.18446405198370E-11  7.80498711437572E-02
 cg2d: Sum(rhs),rhsMax =  -6.18008977326667E-11  7.81900599438895E-02
 cg2d: Sum(rhs),rhsMax =  -6.18117779183081E-11  7.83374768482262E-02
 cg2d: Sum(rhs),rhsMax =  -6.17927931045870E-11  7.85083317613688E-02
 cg2d: Sum(rhs),rhsMax =  -6.17617068598975E-11  7.86774142548707E-02
 cg2d: Sum(rhs),rhsMax =  -6.17319528828375E-11  7.88528427487665E-02
 cg2d: Sum(rhs),rhsMax =  -6.16883211179697E-11  7.90776118584798E-02
 cg2d: Sum(rhs),rhsMax =  -6.16432460631700E-11  7.92875053257591E-02
 cg2d: Sum(rhs),rhsMax =  -6.15836270867476E-11  7.94964624873529E-02
 cg2d: Sum(rhs),rhsMax =  -6.15151263261282E-11  7.97083927486122E-02
 cg2d: Sum(rhs),rhsMax =  -6.14717166058654E-11  7.99211902829765E-02
 cg2d: Sum(rhs),rhsMax =  -6.14207573690351E-11  8.01348871612336E-02
 cg2d: Sum(rhs),rhsMax =  -6.13727957343713E-11  8.03491056391198E-02
 cg2d: Sum(rhs),rhsMax =  -6.12572770286590E-11  8.05644930899048E-02
 cg2d: Sum(rhs),rhsMax =  -6.12031536562085E-11  8.07800015205536E-02
 cg2d: Sum(rhs),rhsMax =  -6.11947714723726E-11  8.09976758437352E-02
 cg2d: Sum(rhs),rhsMax =  -6.11514172632610E-11  8.12162399578573E-02
 cg2d: Sum(rhs),rhsMax =  -6.11142247919361E-11  8.14364431224412E-02
 cg2d: Sum(rhs),rhsMax =  -6.10833605918515E-11  8.16575268169387E-02
 cg2d: Sum(rhs),rhsMax =  -6.12738748628772E-11  8.15613684345952E-02
 cg2d: Sum(rhs),rhsMax =  -6.11506956182950E-11  8.19087193707859E-02
 cg2d: Sum(rhs),rhsMax =  -6.10201889017503E-11  8.21634839272458E-02
 cg2d: Sum(rhs),rhsMax =  -6.08966765902608E-11  8.24014892627072E-02
 cg2d: Sum(rhs),rhsMax =  -6.09445827137733E-11  8.24019949856287E-02
 cg2d: Sum(rhs),rhsMax =  -6.07196515289843E-11  8.27775862829836E-02
 cg2d: Sum(rhs),rhsMax =  -6.05634431494195E-11  8.30480523885516E-02
 cg2d: Sum(rhs),rhsMax =  -6.04082617261525E-11  8.33095795194049E-02
 cg2d: Sum(rhs),rhsMax =  -6.02729532950264E-11  8.35759125911065E-02
 cg2d: Sum(rhs),rhsMax =  -6.01272087674687E-11  8.38409102068938E-02
 cg2d: Sum(rhs),rhsMax =  -5.99995747530002E-11  8.41020337401676E-02
 cg2d: Sum(rhs),rhsMax =  -5.98655292005645E-11  8.43606577124677E-02
 cg2d: Sum(rhs),rhsMax =  -5.97338428720562E-11  8.46149876990809E-02
 cg2d: Sum(rhs),rhsMax =  -5.96039190225994E-11  8.48640598096569E-02
 cg2d: Sum(rhs),rhsMax =  -5.94842300416509E-11  8.51085300021693E-02
 cg2d: Sum(rhs),rhsMax =  -5.93801739549871E-11  8.53455406517006E-02
 cg2d: Sum(rhs),rhsMax =  -5.92856597148028E-11  8.55760026084106E-02
 cg2d: Sum(rhs),rhsMax =  -5.91963492113656E-11  8.57920105386289E-02
 cg2d: Sum(rhs),rhsMax =  -5.90793941546153E-11  8.60111016745353E-02
 cg2d: Sum(rhs),rhsMax =  -5.89709253651094E-11  8.62178861004894E-02
 cg2d: Sum(rhs),rhsMax =  -5.88812471002953E-11  8.64161425060351E-02
 cg2d: Sum(rhs),rhsMax =  -5.88014081870369E-11  8.66064075807047E-02
 cg2d: Sum(rhs),rhsMax =  -5.87282167341385E-11  8.67873372786063E-02
 cg2d: Sum(rhs),rhsMax =  -5.86629078647150E-11  8.69615530795417E-02
 cg2d: Sum(rhs),rhsMax =  -5.86150294967780E-11  8.71267811261792E-02
 cg2d: Sum(rhs),rhsMax =  -5.85398396424353E-11  8.72837469040396E-02
 cg2d: Sum(rhs),rhsMax =  -5.85195225610846E-11  8.74327101558222E-02
 cg2d: Sum(rhs),rhsMax =  -5.84658432778440E-11  8.75755537790760E-02
 cg2d: Sum(rhs),rhsMax =  -5.84421955274195E-11  8.77084281019291E-02
 cg2d: Sum(rhs),rhsMax =  -5.84210457788004E-11  8.78344384611065E-02
 cg2d: Sum(rhs),rhsMax =  -5.83747494786735E-11  8.79541144640185E-02
 cg2d: Sum(rhs),rhsMax =  -5.83662007613839E-11  8.80663134703152E-02
 cg2d: Sum(rhs),rhsMax =  -5.83658121833253E-11  8.81717193020786E-02
 cg2d: Sum(rhs),rhsMax =  -5.83504355944342E-11  8.82705062783866E-02
 cg2d: Sum(rhs),rhsMax =  -5.83274539778245E-11  8.83635926326305E-02
 cg2d: Sum(rhs),rhsMax =  -5.83201265058619E-11  8.84520589492230E-02
 cg2d: Sum(rhs),rhsMax =  -5.82870418597281E-11  8.85365298999749E-02
 cg2d: Sum(rhs),rhsMax =  -5.82969783557985E-11  8.86171757870731E-02
 cg2d: Sum(rhs),rhsMax =  -5.82665027337725E-11  8.86942824097363E-02
 cg2d: Sum(rhs),rhsMax =  -5.83236792195407E-11  8.87675316373832E-02
 cg2d: Sum(rhs),rhsMax =  -5.84041703888261E-11  8.88373247417552E-02
 cg2d: Sum(rhs),rhsMax =  -5.84612358522918E-11  8.89035703156508E-02
 cg2d: Sum(rhs),rhsMax =  -5.85494985827495E-11  8.89670095637864E-02
 cg2d: Sum(rhs),rhsMax =  -5.86415360714909E-11  8.90280784978718E-02
 cg2d: Sum(rhs),rhsMax =  -5.87063730961290E-11  8.90867735977872E-02
 cg2d: Sum(rhs),rhsMax =  -5.87707660315573E-11  8.91434154769961E-02
 cg2d: Sum(rhs),rhsMax =  -5.88501469778180E-11  8.91983762986422E-02
 cg2d: Sum(rhs),rhsMax =  -5.88992188355064E-11  8.92519956573741E-02
 cg2d: Sum(rhs),rhsMax =  -5.89842619191927E-11  8.93043298221779E-02
 cg2d: Sum(rhs),rhsMax =  -5.90550941481638E-11  8.93556189635393E-02
 cg2d: Sum(rhs),rhsMax =  -5.91430238117141E-11  8.94064402395005E-02
 cg2d: Sum(rhs),rhsMax =  -5.92260684939561E-11  8.94578082879289E-02
 cg2d: Sum(rhs),rhsMax =  -5.92667026566573E-11  8.95099203865063E-02
 cg2d: Sum(rhs),rhsMax =  -5.93504134727141E-11  8.95660483612242E-02
 cg2d: Sum(rhs),rhsMax =  -5.93703974871573E-11  8.96191106080437E-02
 cg2d: Sum(rhs),rhsMax =  -5.94849725032986E-11  8.96731655633470E-02
 cg2d: Sum(rhs),rhsMax =  -5.95156146587783E-11  8.97282720851911E-02
 cg2d: Sum(rhs),rhsMax =  -5.95659077617938E-11  8.97843013412177E-02
 cg2d: Sum(rhs),rhsMax =  -5.92037530111611E-11  9.05111654772286E-02
 cg2d: Sum(rhs),rhsMax =  -5.83042503166098E-11  9.20449638726073E-02
 cg2d: Sum(rhs),rhsMax =  -5.74442715617351E-11  9.35410235884145E-02
 cg2d: Sum(rhs),rhsMax =  -5.66585667272079E-11  9.49985973798367E-02
 cg2d: Sum(rhs),rhsMax =  -5.58794122085260E-11  9.64169759514979E-02
 cg2d: Sum(rhs),rhsMax =  -5.51914070001658E-11  9.77954866541699E-02
 cg2d: Sum(rhs),rhsMax =  -5.45058442824597E-11  9.91334915143111E-02
 cg2d: Sum(rhs),rhsMax =  -5.38401545568945E-11  1.00430384765419E-01
 cg2d: Sum(rhs),rhsMax =  -5.32458521718127E-11  1.01685590136351E-01
 cg2d: Sum(rhs),rhsMax =  -5.26766408270873E-11  1.02898558046639E-01
 cg2d: Sum(rhs),rhsMax =  -5.21148679766270E-11  1.04068762925812E-01
 cg2d: Sum(rhs),rhsMax =  -5.16399145666924E-11  1.05195700798155E-01
 cg2d: Sum(rhs),rhsMax =  -5.11927167323734E-11  1.06278887251038E-01
 cg2d: Sum(rhs),rhsMax =  -5.08133535248589E-11  1.07317855930062E-01
 cg2d: Sum(rhs),rhsMax =  -5.04737363016261E-11  1.08312157596700E-01
 cg2d: Sum(rhs),rhsMax =  -5.01338970337883E-11  1.09261359758937E-01
 cg2d: Sum(rhs),rhsMax =  -4.98225904976834E-11  1.10165046884313E-01
 cg2d: Sum(rhs),rhsMax =  -4.95187224558435E-11  1.11022821124425E-01
 cg2d: Sum(rhs),rhsMax =  -4.92503815507916E-11  1.11834303500066E-01
 cg2d: Sum(rhs),rhsMax =  -4.90012475040658E-11  1.12599135336992E-01
 cg2d: Sum(rhs),rhsMax =  -4.87520024350374E-11  1.13316979766967E-01
 cg2d: Sum(rhs),rhsMax =  -4.85841367137141E-11  1.13987523398686E-01
 cg2d: Sum(rhs),rhsMax =  -4.83599826850423E-11  1.14610477749326E-01
 cg2d: Sum(rhs),rhsMax =  -4.82053286177120E-11  1.15185580490654E-01
 cg2d: Sum(rhs),rhsMax =  -4.80319117812655E-11  1.15712596435611E-01
 cg2d: Sum(rhs),rhsMax =  -4.78674877513185E-11  1.16191318198000E-01
 cg2d: Sum(rhs),rhsMax =  -4.78129758008095E-11  1.16621566476005E-01
 cg2d: Sum(rhs),rhsMax =  -4.77441419732827E-11  1.17003189941332E-01
 cg2d: Sum(rhs),rhsMax =  -4.76639838709048E-11  1.17336064824722E-01
 cg2d: Sum(rhs),rhsMax =  -4.76345629607522E-11  1.17620094209330E-01
 cg2d: Sum(rhs),rhsMax =  -4.75954831102854E-11  1.17855207287284E-01
 cg2d: Sum(rhs),rhsMax =  -4.76031436491553E-11  1.18041358580877E-01
 cg2d: Sum(rhs),rhsMax =  -4.75590677950777E-11  1.18178527171304E-01
 cg2d: Sum(rhs),rhsMax =  -4.75586237058678E-11  1.18266716020219E-01
 cg2d: Sum(rhs),rhsMax =  -4.75403050259615E-11  1.18305951448946E-01
 cg2d: Sum(rhs),rhsMax =  -4.75146588740927E-11  1.18296282810690E-01
 cg2d: Sum(rhs),rhsMax =  -4.75532946353496E-11  1.18237782355757E-01
 cg2d: Sum(rhs),rhsMax =  -4.74773553804653E-11  1.18130545300055E-01
 cg2d: Sum(rhs),rhsMax =  -4.75072203798277E-11  1.17974689683243E-01
 cg2d: Sum(rhs),rhsMax =  -4.75336436878138E-11  1.17770356780710E-01
 cg2d: Sum(rhs),rhsMax =  -4.75807171440579E-11  1.17517711373491E-01
 cg2d: Sum(rhs),rhsMax =  -4.76604311572260E-11  1.17216941831558E-01
 cg2d: Sum(rhs),rhsMax =  -4.77698991474540E-11  1.16868259735550E-01
 cg2d: Sum(rhs),rhsMax =  -4.78933559477923E-11  1.16471899719292E-01
 cg2d: Sum(rhs),rhsMax =  -4.80655515389117E-11  1.16028119137805E-01
 cg2d: Sum(rhs),rhsMax =  -4.82098805321129E-11  1.15537197418728E-01
 cg2d: Sum(rhs),rhsMax =  -4.84223772190262E-11  1.14999435380237E-01
 cg2d: Sum(rhs),rhsMax =  -4.86004569921761E-11  1.14415154320803E-01
 cg2d: Sum(rhs),rhsMax =  -4.88120655006696E-11  1.13784694640114E-01
 cg2d: Sum(rhs),rhsMax =  -4.90600893243709E-11  1.13108414725166E-01
 cg2d: Sum(rhs),rhsMax =  -4.93081131480722E-11  1.12386690020505E-01
 cg2d: Sum(rhs),rhsMax =  -4.95906649078393E-11  1.11619912665193E-01
 cg2d: Sum(rhs),rhsMax =  -4.98502350509966E-11  1.10808491474725E-01
 cg2d: Sum(rhs),rhsMax =  -5.01858554713408E-11  1.09952851362330E-01
 cg2d: Sum(rhs),rhsMax =  -5.05218089585924E-11  1.09053433264279E-01
 cg2d: Sum(rhs),rhsMax =  -5.08900699358605E-11  1.08110694461389E-01
 cg2d: Sum(rhs),rhsMax =  -5.12816455966458E-11  1.07125109251653E-01
 cg2d: Sum(rhs),rhsMax =  -5.17216269813048E-11  1.06097169737883E-01
 cg2d: Sum(rhs),rhsMax =  -5.22044629747143E-11  1.05027386691230E-01
 cg2d: Sum(rhs),rhsMax =  -5.26962917746232E-11  1.03916290401686E-01
 cg2d: Sum(rhs),rhsMax =  -5.32558441790343E-11  1.02764431543108E-01
 cg2d: Sum(rhs),rhsMax =  -5.38231681446177E-11  1.01572381738521E-01
 cg2d: Sum(rhs),rhsMax =  -5.44381206779576E-11  1.00340733957506E-01
 cg2d: Sum(rhs),rhsMax =  -5.50431922263783E-11  9.90701027262771E-02
 cg2d: Sum(rhs),rhsMax =  -5.50188783421390E-11  9.90051333909354E-02
 cg2d: Sum(rhs),rhsMax =  -5.49187362253178E-11  9.91065699126227E-02
 cg2d: Sum(rhs),rhsMax =  -5.48002754285903E-11  9.91923897841970E-02
 cg2d: Sum(rhs),rhsMax =  -5.46913625498746E-11  9.92629160296292E-02
 cg2d: Sum(rhs),rhsMax =  -5.45892220316091E-11  9.93367382891100E-02
 cg2d: Sum(rhs),rhsMax =  -5.45061773493671E-11  9.93844348561571E-02
 cg2d: Sum(rhs),rhsMax =  -5.44095879462247E-11  9.94163637745596E-02
 cg2d: Sum(rhs),rhsMax =  -5.43098899186134E-11  9.94330990122893E-02
 cg2d: Sum(rhs),rhsMax =  -5.42197398090138E-11  9.94345206545787E-02
 cg2d: Sum(rhs),rhsMax =  -5.41605649218013E-11  9.94212270446784E-02
 cg2d: Sum(rhs),rhsMax =  -5.40879563359908E-11  9.93934876187132E-02
 cg2d: Sum(rhs),rhsMax =  -5.40099076573597E-11  9.93523511761596E-02
 cg2d: Sum(rhs),rhsMax =  -5.39388533837837E-11  9.92980610146789E-02
 cg2d: Sum(rhs),rhsMax =  -5.39360778262221E-11  9.92311560047192E-02
 cg2d: Sum(rhs),rhsMax =  -5.38817879203179E-11  9.91522716157469E-02
 cg2d: Sum(rhs),rhsMax =  -5.38447064712955E-11  9.90614079229760E-02
 cg2d: Sum(rhs),rhsMax =  -5.38229461000128E-11  9.89595766255707E-02
 cg2d: Sum(rhs),rhsMax =  -5.37709876624604E-11  9.88470092592442E-02
 cg2d: Sum(rhs),rhsMax =  -5.37456745774989E-11  9.87242249766718E-02
 cg2d: Sum(rhs),rhsMax =  -5.37810351808332E-11  9.85914372057516E-02
 cg2d: Sum(rhs),rhsMax =  -5.37102029518621E-11  9.84494003935322E-02
 cg2d: Sum(rhs),rhsMax =  -5.37009881007577E-11  9.82985181396399E-02
 cg2d: Sum(rhs),rhsMax =  -5.36984900989523E-11  9.81389746219023E-02
 cg2d: Sum(rhs),rhsMax =  -5.36687916330436E-11  9.79719074014664E-02
 cg2d: Sum(rhs),rhsMax =  -5.36845567999933E-11  9.77975467379022E-02
 cg2d: Sum(rhs),rhsMax =  -5.36847233334470E-11  9.76166565022628E-02
 cg2d: Sum(rhs),rhsMax =  -5.36888866697893E-11  9.74297277563910E-02
 cg2d: Sum(rhs),rhsMax =  -5.36861666233790E-11  9.72379791098364E-02
 cg2d: Sum(rhs),rhsMax =  -5.36805599971046E-11  9.70423350072230E-02
 cg2d: Sum(rhs),rhsMax =  -5.36879429802184E-11  9.68434884039330E-02
 cg2d: Sum(rhs),rhsMax =  -5.36980460097425E-11  9.66418390553351E-02
 cg2d: Sum(rhs),rhsMax =  -5.37264122080217E-11  9.64291536594778E-02
 cg2d: Sum(rhs),rhsMax =  -5.37367927933019E-11  9.62211789351240E-02
 cg2d: Sum(rhs),rhsMax =  -5.38160627172601E-11  9.60118934469409E-02
 cg2d: Sum(rhs),rhsMax =  -5.38359634649765E-11  9.58015190838043E-02
 cg2d: Sum(rhs),rhsMax =  -5.38507016756284E-11  9.55909587338424E-02
 cg2d: Sum(rhs),rhsMax =  -5.38719069353988E-11  9.53810831494081E-02
 cg2d: Sum(rhs),rhsMax =  -5.38754596490776E-11  9.51729677576909E-02
 cg2d: Sum(rhs),rhsMax =  -5.38767086499803E-11  9.49669904828610E-02
 cg2d: Sum(rhs),rhsMax =  -5.38613598166648E-11  9.47641457748842E-02
 cg2d: Sum(rhs),rhsMax =  -5.39668865151555E-11  9.45644580663386E-02
 cg2d: Sum(rhs),rhsMax =  -5.39437522428798E-11  9.43688168688401E-02
 cg2d: Sum(rhs),rhsMax =  -5.39436134650018E-11  9.41781171128419E-02
 cg2d: Sum(rhs),rhsMax =  -5.39474021010733E-11  9.39925234873214E-02
 cg2d: Sum(rhs),rhsMax =  -5.39399219734449E-11  9.38121312371544E-02
 cg2d: Sum(rhs),rhsMax =  -5.39273903310544E-11  9.36372311866093E-02
 cg2d: Sum(rhs),rhsMax =  -5.38933012800280E-11  9.34687701060477E-02
 cg2d: Sum(rhs),rhsMax =  -5.38654294779395E-11  9.33069676364549E-02
 cg2d: Sum(rhs),rhsMax =  -5.38471038591393E-11  9.31531113236554E-02
 cg2d: Sum(rhs),rhsMax =  -5.38092348456587E-11  9.30070499955963E-02
 cg2d: Sum(rhs),rhsMax =  -5.37750122209246E-11  9.28695975124768E-02
 cg2d: Sum(rhs),rhsMax =  -5.37350719476137E-11  9.27413431076906E-02
 cg2d: Sum(rhs),rhsMax =  -5.36760774716427E-11  9.26220712722741E-02
 cg2d: Sum(rhs),rhsMax =  -5.36051619759448E-11  9.25129764326082E-02
 cg2d: Sum(rhs),rhsMax =  -5.35360922260253E-11  9.24147152957272E-02
 cg2d: Sum(rhs),rhsMax =  -5.34775834726275E-11  9.23285172420484E-02
 cg2d: Sum(rhs),rhsMax =  -5.34114141803599E-11  9.22563736331040E-02
 cg2d: Sum(rhs),rhsMax =  -5.33288690984790E-11  9.21977399946031E-02
 cg2d: Sum(rhs),rhsMax =  -5.32497934635501E-11  9.21529088937067E-02
 cg2d: Sum(rhs),rhsMax =  -5.31595878427993E-11  9.21217123612945E-02
 cg2d: Sum(rhs),rhsMax =  -5.30566146572653E-11  9.21046549359388E-02
 cg2d: Sum(rhs),rhsMax =  -5.29669086368756E-11  9.21018601111660E-02
 cg2d: Sum(rhs),rhsMax =  -5.28415089462442E-11  9.21132117300393E-02
 cg2d: Sum(rhs),rhsMax =  -5.27529686600303E-11  9.21379909505463E-02
 cg2d: Sum(rhs),rhsMax =  -5.26201859862852E-11  9.21761345020802E-02
 cg2d: Sum(rhs),rhsMax =  -5.25062771039586E-11  9.22274737446371E-02
 cg2d: Sum(rhs),rhsMax =  -5.23732168744573E-11  9.22912532516345E-02
 cg2d: Sum(rhs),rhsMax =  -5.22288323701048E-11  9.23670559594763E-02
 cg2d: Sum(rhs),rhsMax =  -5.20692933214661E-11  9.24536780222396E-02
 cg2d: Sum(rhs),rhsMax =  -5.19038145796458E-11  9.25522426928528E-02
 cg2d: Sum(rhs),rhsMax =  -5.17488274454081E-11  9.26607313408876E-02
 cg2d: Sum(rhs),rhsMax =  -5.16038323183921E-11  9.27783388242280E-02
 cg2d: Sum(rhs),rhsMax =  -5.14478459834322E-11  9.29045189601493E-02
 cg2d: Sum(rhs),rhsMax =  -5.12764830595813E-11  9.30385126397122E-02
 cg2d: Sum(rhs),rhsMax =  -5.10931297270645E-11  9.31794478135409E-02
 cg2d: Sum(rhs),rhsMax =  -5.09287056971175E-11  9.33263806678941E-02
 cg2d: Sum(rhs),rhsMax =  -5.07247577274939E-11  9.34782782554328E-02
 cg2d: Sum(rhs),rhsMax =  -5.05403496831036E-11  9.36342584895910E-02
 cg2d: Sum(rhs),rhsMax =  -5.03719288502680E-11  9.37931059517028E-02
 cg2d: Sum(rhs),rhsMax =  -5.01799712893103E-11  9.39536963937532E-02
 cg2d: Sum(rhs),rhsMax =  -5.00262054003997E-11  9.41148592976928E-02
 cg2d: Sum(rhs),rhsMax =  -4.98476815380400E-11  9.42756172575235E-02
 cg2d: Sum(rhs),rhsMax =  -4.97117902398259E-11  9.44347145495307E-02
 cg2d: Sum(rhs),rhsMax =  -4.95650187559704E-11  9.45461802183636E-02
 cg2d: Sum(rhs),rhsMax =  -4.94002616591160E-11  9.46926843182024E-02
 cg2d: Sum(rhs),rhsMax =  -4.92682561414881E-11  9.48392451133447E-02
 cg2d: Sum(rhs),rhsMax =  -4.91169327432317E-11  9.49839117118980E-02
 cg2d: Sum(rhs),rhsMax =  -4.89761564637092E-11  9.51262422318444E-02
 cg2d: Sum(rhs),rhsMax =  -4.88998841419175E-11  9.52365244454860E-02
 cg2d: Sum(rhs),rhsMax =  -4.87455631414946E-11  9.53763514087858E-02
 cg2d: Sum(rhs),rhsMax =  -4.86342077721247E-11  9.55076682994390E-02
 cg2d: Sum(rhs),rhsMax =  -4.84787765486772E-11  9.56293504365301E-02
 cg2d: Sum(rhs),rhsMax =  -4.83940665318983E-11  9.57411226456692E-02
 cg2d: Sum(rhs),rhsMax =  -4.82935913481697E-11  9.58423060691118E-02
 cg2d: Sum(rhs),rhsMax =  -4.81982231903544E-11  9.59321734511441E-02
 cg2d: Sum(rhs),rhsMax =  -4.80901984900584E-11  9.60101633466550E-02
 cg2d: Sum(rhs),rhsMax =  -4.79947193099406E-11  9.60762704413670E-02
 cg2d: Sum(rhs),rhsMax =  -4.78919126578603E-11  9.61304488879169E-02
 cg2d: Sum(rhs),rhsMax =  -4.77712314150835E-11  9.61803004833366E-02
 cg2d: Sum(rhs),rhsMax =  -4.76630956924851E-11  9.62126100262518E-02
 cg2d: Sum(rhs),rhsMax =  -4.75630645979663E-11  9.62321524159539E-02
 cg2d: Sum(rhs),rhsMax =  -4.74512651393866E-11  9.62391688526459E-02
 cg2d: Sum(rhs),rhsMax =  -4.73757699737121E-11  9.62337437390938E-02
 cg2d: Sum(rhs),rhsMax =  -4.73308059412147E-11  9.62161204877642E-02
 cg2d: Sum(rhs),rhsMax =  -4.72466510359482E-11  9.61865215771789E-02
 cg2d: Sum(rhs),rhsMax =  -4.71931382861612E-11  9.61454295847440E-02
 cg2d: Sum(rhs),rhsMax =  -4.71570560378609E-11  9.60932881146735E-02
 cg2d: Sum(rhs),rhsMax =  -4.71483962982688E-11  9.60301854026841E-02
 cg2d: Sum(rhs),rhsMax =  -4.71356287334856E-11  9.59577044297414E-02
 cg2d: Sum(rhs),rhsMax =  -4.71128691614808E-11  9.58756556324977E-02
 cg2d: Sum(rhs),rhsMax =  -4.71330752205290E-11  9.57848415372605E-02
 cg2d: Sum(rhs),rhsMax =  -4.71191974327212E-11  9.56757638238111E-02
 cg2d: Sum(rhs),rhsMax =  -4.71419570047260E-11  9.55641849998526E-02
 cg2d: Sum(rhs),rhsMax =  -4.71259697931714E-11  9.54515581337914E-02
 cg2d: Sum(rhs),rhsMax =  -4.71456207407073E-11  9.53342077115416E-02
 cg2d: Sum(rhs),rhsMax =  -4.71267469492886E-11  9.52092547157027E-02
 cg2d: Sum(rhs),rhsMax =  -4.71630512421939E-11  9.51116758704371E-02
 cg2d: Sum(rhs),rhsMax =  -4.71794825429583E-11  9.49965315636126E-02
 cg2d: Sum(rhs),rhsMax =  -4.71935823753711E-11  9.48752075411634E-02
 cg2d: Sum(rhs),rhsMax =  -4.72163419473759E-11  9.47508065065493E-02
 cg2d: Sum(rhs),rhsMax =  -4.72870631540445E-11  9.46228673022633E-02
 cg2d: Sum(rhs),rhsMax =  -4.73535655132196E-11  9.44922198333042E-02
 cg2d: Sum(rhs),rhsMax =  -4.73970862557849E-11  9.43593156150566E-02
 cg2d: Sum(rhs),rhsMax =  -4.74635886149599E-11  9.42249887445465E-02
 cg2d: Sum(rhs),rhsMax =  -4.75351980000482E-11  9.40896586797224E-02
 cg2d: Sum(rhs),rhsMax =  -4.76734207666141E-11  9.39540658891732E-02
 cg2d: Sum(rhs),rhsMax =  -4.78177497598153E-11  9.38186891726789E-02
 cg2d: Sum(rhs),rhsMax =  -4.79764006300343E-11  9.36843482557579E-02
 cg2d: Sum(rhs),rhsMax =  -4.80814277281638E-11  9.35513434373464E-02
 cg2d: Sum(rhs),rhsMax =  -4.81815698449850E-11  9.34202977980783E-02
 cg2d: Sum(rhs),rhsMax =  -4.82953677050091E-11  9.32915366268609E-02
 cg2d: Sum(rhs),rhsMax =  -4.84645656939620E-11  9.31654987200042E-02
 cg2d: Sum(rhs),rhsMax =  -4.85850248921338E-11  9.30406192857387E-02
 cg2d: Sum(rhs),rhsMax =  -4.86903850571707E-11  9.29193990896350E-02
 cg2d: Sum(rhs),rhsMax =  -4.88148410582312E-11  9.28020357233080E-02
 cg2d: Sum(rhs),rhsMax =  -4.89275286952306E-11  9.26880060006854E-02
 cg2d: Sum(rhs),rhsMax =  -4.91082730036396E-11  9.25777656153440E-02
 cg2d: Sum(rhs),rhsMax =  -4.92896834458634E-11  9.24717983382213E-02
 cg2d: Sum(rhs),rhsMax =  -4.94196905620470E-11  9.23701577037474E-02
 cg2d: Sum(rhs),rhsMax =  -4.95689045365566E-11  9.22729931957667E-02
 cg2d: Sum(rhs),rhsMax =  -4.97031305002338E-11  9.21807824051005E-02
 cg2d: Sum(rhs),rhsMax =  -4.98601160359158E-11  9.20935225184092E-02
 cg2d: Sum(rhs),rhsMax =  -5.00207653075790E-11  9.20112182271801E-02
 cg2d: Sum(rhs),rhsMax =  -5.01142460862525E-11  9.19341243103943E-02
 cg2d: Sum(rhs),rhsMax =  -5.02460295592755E-11  9.18621700014353E-02
 cg2d: Sum(rhs),rhsMax =  -5.03459496314917E-11  9.17957045939234E-02
 cg2d: Sum(rhs),rhsMax =  -5.03984631805565E-11  9.17410833846308E-02
 cg2d: Sum(rhs),rhsMax =  -5.05296915420672E-11  9.16885335496766E-02
 cg2d: Sum(rhs),rhsMax =  -5.06062969307663E-11  9.16417380521547E-02
 cg2d: Sum(rhs),rhsMax =  -5.09433606410425E-11  9.10667344193870E-02
 cg2d: Sum(rhs),rhsMax =  -5.09470243770238E-11  9.12143657582617E-02
 cg2d: Sum(rhs),rhsMax =  -5.10099740225201E-11  9.12447298706946E-02
 cg2d: Sum(rhs),rhsMax =  -5.10770314932074E-11  9.12439325344095E-02
 cg2d: Sum(rhs),rhsMax =  -5.11618525322888E-11  9.12512714641973E-02
 cg2d: Sum(rhs),rhsMax =  -5.12175857281250E-11  9.12657184712002E-02
 cg2d: Sum(rhs),rhsMax =  -5.13035169902309E-11  9.12865169197092E-02
 cg2d: Sum(rhs),rhsMax =  -5.13576958738327E-11  9.13140068880894E-02
 cg2d: Sum(rhs),rhsMax =  -5.14184250732796E-11  9.13474517360219E-02
 cg2d: Sum(rhs),rhsMax =  -5.14912557036951E-11  9.13869026008539E-02
 cg2d: Sum(rhs),rhsMax =  -5.15616438434563E-11  9.14324126756085E-02
 cg2d: Sum(rhs),rhsMax =  -5.16050535637191E-11  9.14842294217054E-02
 cg2d: Sum(rhs),rhsMax =  -5.16483522616795E-11  9.15419554558563E-02
 cg2d: Sum(rhs),rhsMax =  -5.16736653466410E-11  9.16697187001432E-02
(PID.TID 0000.0001)      cg2d_init_res =   9.61684833960166E-02
(PID.TID 0000.0001)      cg2d_iters(min,last) =      -1      38
(PID.TID 0000.0001)      cg2d_last_res =   6.77374202302754E-14
(PID.TID 0000.0001) // =======================================================
(PID.TID 0000.0001) // Begin MONITOR dynamic field statistics
(PID.TID 0000.0001) // =======================================================
(PID.TID 0000.0001) %MON time_tsnumber                =                  3840
(PID.TID 0000.0001) %MON time_secondsf                =   5.7600000000000E+04
(PID.TID 0000.0001) %MON dynstat_eta_max              =   1.0860510144393E-02
(PID.TID 0000.0001) %MON dynstat_eta_min              =  -1.5506335031982E-02
(PID.TID 0000.0001) %MON dynstat_eta_mean             =   1.0459905759993E-14
(PID.TID 0000.0001) %MON dynstat_eta_sd               =   6.7592177496790E-03
(PID.TID 0000.0001) %MON dynstat_eta_del2             =   6.8199737413555E-05
(PID.TID 0000.0001) %MON dynstat_uvel_max             =   1.2746245592072E+00
(PID.TID 0000.0001) %MON dynstat_uvel_min             =  -5.7823836604855E-01
(PID.TID 0000.0001) %MON dynstat_uvel_mean            =   4.5116852132283E-01
(PID.TID 0000.0001) %MON dynstat_uvel_sd              =   6.3362316398580E-02
(PID.TID 0000.0001) %MON dynstat_uvel_del2            =   8.6147245360747E-04
(PID.TID 0000.0001) %MON dynstat_vvel_max             =   0.0000000000000E+00
(PID.TID 0000.0001) %MON dynstat_vvel_min             =   0.0000000000000E+00
(PID.TID 0000.0001) %MON dynstat_vvel_mean            =   0.0000000000000E+00
(PID.TID 0000.0001) %MON dynstat_vvel_sd              =   0.0000000000000E+00
(PID.TID 0000.0001) %MON dynstat_vvel_del2            =   0.0000000000000E+00
(PID.TID 0000.0001) %MON dynstat_wvel_max             =   3.5151720633052E-02
(PID.TID 0000.0001) %MON dynstat_wvel_min             =  -7.6466515722107E-02
(PID.TID 0000.0001) %MON dynstat_wvel_mean            =   5.3244174831197E-20
(PID.TID 0000.0001) %MON dynstat_wvel_sd              =   4.1023836885477E-03
(PID.TID 0000.0001) %MON dynstat_wvel_del2            =   1.3097805490878E-04
(PID.TID 0000.0001) %MON dynstat_theta_max            =   1.5000000000007E+01
(PID.TID 0000.0001) %MON dynstat_theta_min            =   9.9999999999934E+00
(PID.TID 0000.0001) %MON dynstat_theta_mean           =   1.1002353668905E+01
(PID.TID 0000.0001) %MON dynstat_theta_sd             =   1.8997146226236E+00
(PID.TID 0000.0001) %MON dynstat_theta_del2           =   5.5005401814595E-04
(PID.TID 0000.0001) %MON dynstat_salt_max             =   3.5000000000000E+01
(PID.TID 0000.0001) %MON dynstat_salt_min             =   3.5000000000000E+01
(PID.TID 0000.0001) %MON dynstat_salt_mean            =   3.5000000000000E+01
(PID.TID 0000.0001) %MON dynstat_salt_sd              =   4.0500935938326E-13
(PID.TID 0000.0001) %MON dynstat_salt_del2            =   0.0000000000000E+00
(PID.TID 0000.0001) %MON dynstat_sst_max              =   1.5000000000007E+01
(PID.TID 0000.0001) %MON dynstat_sst_min              =   1.4999999999114E+01
(PID.TID 0000.0001) %MON dynstat_sst_mean             =   1.4999999999988E+01
(PID.TID 0000.0001) %MON dynstat_sst_sd               =   8.9291609331108E-11
(PID.TID 0000.0001) %MON dynstat_sst_del2             =   2.2825947908843E-12
(PID.TID 0000.0001) %MON dynstat_sss_max              =   3.5000000000000E+01
(PID.TID 0000.0001) %MON dynstat_sss_min              =   3.5000000000000E+01
(PID.TID 0000.0001) %MON dynstat_sss_mean             =   3.5000000000000E+01
(PID.TID 0000.0001) %MON dynstat_sss_sd               =   4.2632564145606E-14
(PID.TID 0000.0001) %MON dynstat_sss_del2             =   0.0000000000000E+00
(PID.TID 0000.0001) %MON forcing_qnet_max             =   0.0000000000000E+00
(PID.TID 0000.0001) %MON forcing_qnet_min             =   0.0000000000000E+00
(PID.TID 0000.0001) %MON forcing_qnet_mean            =   0.0000000000000E+00
(PID.TID 0000.0001) %MON forcing_qnet_sd              =   0.0000000000000E+00
(PID.TID 0000.0001) %MON forcing_qnet_del2            =   0.0000000000000E+00
(PID.TID 0000.0001) %MON forcing_qsw_max              =   0.0000000000000E+00
(PID.TID 0000.0001) %MON forcing_qsw_min              =   0.0000000000000E+00
(PID.TID 0000.0001) %MON forcing_qsw_mean             =   0.0000000000000E+00
(PID.TID 0000.0001) %MON forcing_qsw_sd               =   0.0000000000000E+00
(PID.TID 0000.0001) %MON forcing_qsw_del2             =   0.0000000000000E+00
(PID.TID 0000.0001) %MON forcing_empmr_max            =   0.0000000000000E+00
(PID.TID 0000.0001) %MON forcing_empmr_min            =   0.0000000000000E+00
(PID.TID 0000.0001) %MON forcing_empmr_mean           =   0.0000000000000E+00
(PID.TID 0000.0001) %MON forcing_empmr_sd             =   0.0000000000000E+00
(PID.TID 0000.0001) %MON forcing_empmr_del2           =   0.0000000000000E+00
(PID.TID 0000.0001) %MON forcing_fu_max               =   0.0000000000000E+00
(PID.TID 0000.0001) %MON forcing_fu_min               =   0.0000000000000E+00
(PID.TID 0000.0001) %MON forcing_fu_mean              =   0.0000000000000E+00
(PID.TID 0000.0001) %MON forcing_fu_sd                =   0.0000000000000E+00
(PID.TID 0000.0001) %MON forcing_fu_del2              =   0.0000000000000E+00
(PID.TID 0000.0001) %MON forcing_fv_max               =   0.0000000000000E+00
(PID.TID 0000.0001) %MON forcing_fv_min               =   0.0000000000000E+00
(PID.TID 0000.0001) %MON forcing_fv_mean              =   0.0000000000000E+00
(PID.TID 0000.0001) %MON forcing_fv_sd                =   0.0000000000000E+00
(PID.TID 0000.0001) %MON forcing_fv_del2              =   0.0000000000000E+00
(PID.TID 0000.0001) %MON advcfl_uvel_max              =   6.9308810947770E-02
(PID.TID 0000.0001) %MON advcfl_vvel_max              =   0.0000000000000E+00
(PID.TID 0000.0001) %MON advcfl_wvel_max              =   4.2251322183361E-01
(PID.TID 0000.0001) %MON advcfl_W_hf_max              =   4.2710991394804E-01
(PID.TID 0000.0001) %MON pe_b_mean                    =   1.1323391840345E-06
(PID.TID 0000.0001) %MON ke_max                       =   4.1040070388218E-01
(PID.TID 0000.0001) %MON ke_mean                      =   1.0379074551743E-01
(PID.TID 0000.0001) %MON ke_vol                       =   9.6656886657870E+10
(PID.TID 0000.0001) %MON vort_r_min                   =   0.0000000000000E+00
(PID.TID 0000.0001) %MON vort_r_max                   =   0.0000000000000E+00
(PID.TID 0000.0001) %MON vort_a_mean                  =   0.0000000000000E+00
(PID.TID 0000.0001) %MON vort_a_sd                    =   0.0000000000000E+00
(PID.TID 0000.0001) %MON vort_p_mean                  =   0.0000000000000E+00
(PID.TID 0000.0001) %MON vort_p_sd                    =   0.0000000000000E+00
(PID.TID 0000.0001) %MON surfExpan_theta_mean         =   7.9552990025846E-17
(PID.TID 0000.0001) %MON surfExpan_salt_mean          =   3.8928968264238E-18
(PID.TID 0000.0001) // =======================================================
(PID.TID 0000.0001) // End MONITOR dynamic field statistics
(PID.TID 0000.0001) // =======================================================
(PID.TID 0000.0001) // =======================================================
(PID.TID 0000.0001) // Begin OBCS MONITOR field statistics
(PID.TID 0000.0001) // =======================================================
(PID.TID 0000.0001) %MON obc_E_uVel_max               =   4.4822851314926E-01
(PID.TID 0000.0001) %MON obc_E_uVel_min               =   4.4822851314926E-01
(PID.TID 0000.0001) %MON obc_E_uVel_mean              =   4.4822851314926E-01
(PID.TID 0000.0001) %MON obc_E_uVel_sd                =  -1.9428902930940E-16
(PID.TID 0000.0001) %MON obc_E_uVel_Int               =   4.4822851314926E+05
(PID.TID 0000.0001) %MON obc_W_uVel_max               =   4.4822851314926E-01
(PID.TID 0000.0001) %MON obc_W_uVel_min               =   4.4822851314926E-01
(PID.TID 0000.0001) %MON obc_W_uVel_mean              =   4.4822851314926E-01
(PID.TID 0000.0001) %MON obc_W_uVel_sd                =  -1.9428902930940E-16
(PID.TID 0000.0001) %MON obc_W_uVel_Int               =   4.4822851314926E+05
(PID.TID 0000.0001) // =======================================================
(PID.TID 0000.0001) // End OBCS MONITOR field statistics
(PID.TID 0000.0001) // =======================================================
 cg2d: Sum(rhs),rhsMax =  -5.17324516557949E-11  9.17441133671649E-02
 cg2d: Sum(rhs),rhsMax =  -5.17813014688784E-11  9.18306387320968E-02
 cg2d: Sum(rhs),rhsMax =  -5.18172171837250E-11  9.19288376699772E-02
 cg2d: Sum(rhs),rhsMax =  -5.18580178798800E-11  9.20326545335621E-02
 cg2d: Sum(rhs),rhsMax =  -5.18999287990596E-11  9.21412295659324E-02
 cg2d: Sum(rhs),rhsMax =  -5.19436160750786E-11  9.22541955420120E-02
 cg2d: Sum(rhs),rhsMax =  -5.19664866693859E-11  9.23721480854130E-02
 cg2d: Sum(rhs),rhsMax =  -5.19995713155197E-11  9.24947329272009E-02
 cg2d: Sum(rhs),rhsMax =  -5.20168907947038E-11  9.26216541714253E-02
 cg2d: Sum(rhs),rhsMax =  -5.20543053106337E-11  9.27527300637708E-02
 cg2d: Sum(rhs),rhsMax =  -5.20702925221883E-11  9.28877874318002E-02
 cg2d: Sum(rhs),rhsMax =  -5.21132581532413E-11  9.30265641266236E-02
 cg2d: Sum(rhs),rhsMax =  -5.21452325763505E-11  9.31688127764438E-02
 cg2d: Sum(rhs),rhsMax =  -5.21827026034316E-11  9.33145933020973E-02
 cg2d: Sum(rhs),rhsMax =  -5.22112908463157E-11  9.34627036911727E-02
 cg2d: Sum(rhs),rhsMax =  -5.22377974210286E-11  9.36137178106696E-02
 cg2d: Sum(rhs),rhsMax =  -5.22555887449982E-11  9.37671219203990E-02
 cg2d: Sum(rhs),rhsMax =  -5.22696608218354E-11  9.39223958704850E-02
 cg2d: Sum(rhs),rhsMax =  -5.22867582564146E-11  9.40792047664592E-02
 cg2d: Sum(rhs),rhsMax =  -5.22986098872025E-11  9.42372838590828E-02
 cg2d: Sum(rhs),rhsMax =  -5.23290022425016E-11  9.43961094003100E-02
 cg2d: Sum(rhs),rhsMax =  -5.23565912846635E-11  9.45557106796287E-02
 cg2d: Sum(rhs),rhsMax =  -5.23793647344561E-11  9.47149852466076E-02
 cg2d: Sum(rhs),rhsMax =  -5.24081333885817E-11  9.48735346600260E-02
 cg2d: Sum(rhs),rhsMax =  -5.24386367661833E-11  9.50310490879242E-02
 cg2d: Sum(rhs),rhsMax =  -5.24649768074426E-11  9.51834241411974E-02
 cg2d: Sum(rhs),rhsMax =  -5.25218687985607E-11  9.53288865696714E-02
 cg2d: Sum(rhs),rhsMax =  -5.25582997262797E-11  9.54659277753617E-02
 cg2d: Sum(rhs),rhsMax =  -5.26175414003460E-11  9.55955081720004E-02
 cg2d: Sum(rhs),rhsMax =  -5.26593803285014E-11  9.57179189234685E-02
 cg2d: Sum(rhs),rhsMax =  -5.27131116534463E-11  9.58323256516035E-02
 cg2d: Sum(rhs),rhsMax =  -5.27692264884472E-11  9.59404421904466E-02
 cg2d: Sum(rhs),rhsMax =  -5.28117133358208E-11  9.60419705456330E-02
 cg2d: Sum(rhs),rhsMax =  -5.28912330599596E-11  9.61368377608617E-02
 cg2d: Sum(rhs),rhsMax =  -5.29644939017970E-11  9.62252201490888E-02
 cg2d: Sum(rhs),rhsMax =  -5.30420984912183E-11  9.63071521201118E-02
 cg2d: Sum(rhs),rhsMax =  -5.31097665845692E-11  9.63827994807974E-02
 cg2d: Sum(rhs),rhsMax =  -5.32021371402180E-11  9.64521258089969E-02
 cg2d: Sum(rhs),rhsMax =  -5.32975330536090E-11  9.65155588748066E-02
 cg2d: Sum(rhs),rhsMax =  -5.33741661978837E-11  9.65726440099745E-02
 cg2d: Sum(rhs),rhsMax =  -5.34709498900554E-11  9.66239972237225E-02
 cg2d: Sum(rhs),rhsMax =  -5.35649302690899E-11  9.66684705967640E-02
 cg2d: Sum(rhs),rhsMax =  -5.36659050531796E-11  9.67070463199115E-02
 cg2d: Sum(rhs),rhsMax =  -5.37526134714028E-11  9.67398513992638E-02
 cg2d: Sum(rhs),rhsMax =  -5.38478706069156E-11  9.67663424106659E-02
 cg2d: Sum(rhs),rhsMax =  -5.39578381975048E-11  9.67871213288236E-02
 cg2d: Sum(rhs),rhsMax =  -5.40550937344619E-11  9.68021670407440E-02
 cg2d: Sum(rhs),rhsMax =  -5.41425793088024E-11  9.68114972883469E-02
 cg2d: Sum(rhs),rhsMax =  -5.42444977824630E-11  9.68152828941381E-02
 cg2d: Sum(rhs),rhsMax =  -5.43513012374319E-11  9.68137698889568E-02
 cg2d: Sum(rhs),rhsMax =  -5.44925216061642E-11  9.68071621848631E-02
 cg2d: Sum(rhs),rhsMax =  -5.45894440762140E-11  9.67956788737048E-02
 cg2d: Sum(rhs),rhsMax =  -5.46805378753845E-11  9.67825278637491E-02
 cg2d: Sum(rhs),rhsMax =  -5.48066036998307E-11  9.67612196252039E-02
 cg2d: Sum(rhs),rhsMax =  -5.49272849426075E-11  9.67350514595574E-02
 cg2d: Sum(rhs),rhsMax =  -5.50189893644415E-11  9.67052569499791E-02
 cg2d: Sum(rhs),rhsMax =  -5.51522161273965E-11  9.66698510200845E-02
 cg2d: Sum(rhs),rhsMax =  -5.52599077607852E-11  9.66295979313130E-02
 cg2d: Sum(rhs),rhsMax =  -5.53918022561106E-11  9.65844119051440E-02
 cg2d: Sum(rhs),rhsMax =  -5.55326895579356E-11  9.65354359512392E-02
 cg2d: Sum(rhs),rhsMax =  -5.56567014697862E-11  9.64822995573734E-02
 cg2d: Sum(rhs),rhsMax =  -5.57814905377541E-11  9.64260695693760E-02
 cg2d: Sum(rhs),rhsMax =  -5.59198243266223E-11  9.63669867215003E-02
 cg2d: Sum(rhs),rhsMax =  -5.60258506254740E-11  9.63020751161269E-02
 cg2d: Sum(rhs),rhsMax =  -5.61308777236036E-11  9.62346363074916E-02
 cg2d: Sum(rhs),rhsMax =  -5.62828672556748E-11  9.61637977253265E-02
 cg2d: Sum(rhs),rhsMax =  -5.64133184610682E-11  9.60897072641290E-02
 cg2d: Sum(rhs),rhsMax =  -5.65519853168439E-11  9.60123750371296E-02
 cg2d: Sum(rhs),rhsMax =  -5.66916513733418E-11  9.59322365671117E-02
 cg2d: Sum(rhs),rhsMax =  -5.67867974865521E-11  9.58494448958734E-02
 cg2d: Sum(rhs),rhsMax =  -5.69496672042646E-11  9.57628377305347E-02
 cg2d: Sum(rhs),rhsMax =  -5.70806735211704E-11  9.56751330906632E-02
 cg2d: Sum(rhs),rhsMax =  -5.71980240948733E-11  9.55850137555396E-02
 cg2d: Sum(rhs),rhsMax =  -5.73576741658144E-11  9.54928586136521E-02
 cg2d: Sum(rhs),rhsMax =  -5.74607028624996E-11  9.53994566321708E-02
 cg2d: Sum(rhs),rhsMax =  -5.76392267248593E-11  9.53046974023714E-02
 cg2d: Sum(rhs),rhsMax =  -5.77458081352233E-11  9.52088561199263E-02
 cg2d: Sum(rhs),rhsMax =  -5.78863623701409E-11  9.51122125316472E-02
 cg2d: Sum(rhs),rhsMax =  -5.79770675912528E-11  9.50147926116345E-02
 cg2d: Sum(rhs),rhsMax =  -5.76524383788524E-11  9.56725728391323E-02
 cg2d: Sum(rhs),rhsMax =  -5.70469227412218E-11  9.67621739366397E-02
 cg2d: Sum(rhs),rhsMax =  -5.65140156894017E-11  9.78126292405567E-02
 cg2d: Sum(rhs),rhsMax =  -5.59716717418723E-11  9.88235301164973E-02
 cg2d: Sum(rhs),rhsMax =  -5.55420154313424E-11  9.97944830162663E-02
 cg2d: Sum(rhs),rhsMax =  -5.51436674101069E-11  1.00725107670905E-01
 cg2d: Sum(rhs),rhsMax =  -5.47750733659313E-11  1.01615035825685E-01
 cg2d: Sum(rhs),rhsMax =  -5.44099210131321E-11  1.02463910559495E-01
 cg2d: Sum(rhs),rhsMax =  -5.40643085855663E-11  1.03271386171845E-01
 cg2d: Sum(rhs),rhsMax =  -5.37527800048565E-11  1.04037128612839E-01
 cg2d: Sum(rhs),rhsMax =  -5.34430277809861E-11  1.04760816352693E-01
 cg2d: Sum(rhs),rhsMax =  -5.31789057234278E-11  1.05442141470433E-01
 cg2d: Sum(rhs),rhsMax =  -5.29598587206692E-11  1.06080811051316E-01
 cg2d: Sum(rhs),rhsMax =  -5.27514698589471E-11  1.06676548711313E-01
 cg2d: Sum(rhs),rhsMax =  -5.25314236554664E-11  1.07229096060451E-01
 cg2d: Sum(rhs),rhsMax =  -5.23634469118406E-11  1.07738214137275E-01
 cg2d: Sum(rhs),rhsMax =  -5.21991339041961E-11  1.08203684723694E-01
 cg2d: Sum(rhs),rhsMax =  -5.20337106735269E-11  1.08625311481005E-01
 cg2d: Sum(rhs),rhsMax =  -5.19262410847432E-11  1.09002920855764E-01
 cg2d: Sum(rhs),rhsMax =  -5.18669551752282E-11  1.09336362698027E-01
 cg2d: Sum(rhs),rhsMax =  -5.18062259757812E-11  1.09625510636259E-01
 cg2d: Sum(rhs),rhsMax =  -5.17877962735724E-11  1.09870262353312E-01
 cg2d: Sum(rhs),rhsMax =  -5.17600406979568E-11  1.10070539656602E-01
 cg2d: Sum(rhs),rhsMax =  -5.17361709029274E-11  1.10226288385710E-01
 cg2d: Sum(rhs),rhsMax =  -5.18046716635467E-11  1.10337478203945E-01
 cg2d: Sum(rhs),rhsMax =  -5.18276532801565E-11  1.10404102318269E-01
 cg2d: Sum(rhs),rhsMax =  -5.18830534090853E-11  1.10426177163801E-01
 cg2d: Sum(rhs),rhsMax =  -5.18326492837673E-11  1.10403742133408E-01
 cg2d: Sum(rhs),rhsMax =  -5.18453058262480E-11  1.10336859260481E-01
 cg2d: Sum(rhs),rhsMax =  -5.18579623687287E-11  1.10225612601986E-01
 cg2d: Sum(rhs),rhsMax =  -5.19561060841056E-11  1.10070108123732E-01
 cg2d: Sum(rhs),rhsMax =  -5.20309351159653E-11  1.09870473615909E-01
 cg2d: Sum(rhs),rhsMax =  -5.20899989808754E-11  1.09626858520671E-01
 cg2d: Sum(rhs),rhsMax =  -5.22454302043229E-11  1.09339433704932E-01
 cg2d: Sum(rhs),rhsMax =  -5.23796561680001E-11  1.09008390945622E-01
 cg2d: Sum(rhs),rhsMax =  -5.25220977820595E-11  1.08633942878236E-01
 cg2d: Sum(rhs),rhsMax =  -5.26957366631109E-11  1.08216322926168E-01
 cg2d: Sum(rhs),rhsMax =  -5.29384314162940E-11  1.07755785120163E-01
 cg2d: Sum(rhs),rhsMax =  -5.31256150182458E-11  1.07252604247293E-01
 cg2d: Sum(rhs),rhsMax =  -5.33745270203667E-11  1.06707075172374E-01
 cg2d: Sum(rhs),rhsMax =  -5.36213295987409E-11  1.06119512318139E-01
 cg2d: Sum(rhs),rhsMax =  -5.39145394995444E-11  1.05490249303576E-01
 cg2d: Sum(rhs),rhsMax =  -5.41950928578672E-11  1.04819638703818E-01
 cg2d: Sum(rhs),rhsMax =  -5.45093969961385E-11  1.04108051782559E-01
 cg2d: Sum(rhs),rhsMax =  -5.48682210776974E-11  1.03355878522812E-01
 cg2d: Sum(rhs),rhsMax =  -5.52142775944731E-11  1.02563526870647E-01
 cg2d: Sum(rhs),rhsMax =  -5.56193979761588E-11  1.01731422233824E-01
 cg2d: Sum(rhs),rhsMax =  -5.60091972801047E-11  1.00860007241919E-01
 cg2d: Sum(rhs),rhsMax =  -5.64351898546533E-11  9.99497413274179E-02
 cg2d: Sum(rhs),rhsMax =  -5.69481128920302E-11  9.90011003390796E-02
 cg2d: Sum(rhs),rhsMax =  -5.74851277690414E-11  9.80145761765513E-02
 cg2d: Sum(rhs),rhsMax =  -5.80454573295697E-11  9.69906764150039E-02
 cg2d: Sum(rhs),rhsMax =  -5.86274362390782E-11  9.59299238962737E-02
 cg2d: Sum(rhs),rhsMax =  -5.92309534752644E-11  9.48328563882659E-02
 cg2d: Sum(rhs),rhsMax =  -5.93435300899614E-11  9.46232559094937E-02
 cg2d: Sum(rhs),rhsMax =  -5.92486060213560E-11  9.46693322661331E-02
 cg2d: Sum(rhs),rhsMax =  -5.91672266736509E-11  9.47101260657906E-02
 cg2d: Sum(rhs),rhsMax =  -5.90960613777725E-11  9.47450323559246E-02
 cg2d: Sum(rhs),rhsMax =  -5.90341109329984E-11  9.47737755910259E-02
 cg2d: Sum(rhs),rhsMax =  -5.89613913248854E-11  9.47955813310786E-02
 cg2d: Sum(rhs),rhsMax =  -5.89045479060246E-11  9.48109846564339E-02
 cg2d: Sum(rhs),rhsMax =  -5.88622484087864E-11  9.48193770928008E-02
 cg2d: Sum(rhs),rhsMax =  -5.87772053251001E-11  9.48207620735418E-02
 cg2d: Sum(rhs),rhsMax =  -5.87058179846167E-11  9.48150762076638E-02
 cg2d: Sum(rhs),rhsMax =  -5.86757309406494E-11  9.48022021128422E-02
 cg2d: Sum(rhs),rhsMax =  -5.86077852915423E-11  9.47819268622250E-02
 cg2d: Sum(rhs),rhsMax =  -5.85602677460884E-11  9.47542586442477E-02
 cg2d: Sum(rhs),rhsMax =  -5.85139714459615E-11  9.47190595907774E-02
 cg2d: Sum(rhs),rhsMax =  -5.84675641235322E-11  9.46763773239234E-02
 cg2d: Sum(rhs),rhsMax =  -5.84164938643994E-11  9.46262203617781E-02
 cg2d: Sum(rhs),rhsMax =  -5.84082782140172E-11  9.45685939684167E-02
 cg2d: Sum(rhs),rhsMax =  -5.83699755196676E-11  9.45035630848378E-02
 cg2d: Sum(rhs),rhsMax =  -5.83311177138057E-11  9.44312407666323E-02
 cg2d: Sum(rhs),rhsMax =  -5.82961456885300E-11  9.43518913715112E-02
 cg2d: Sum(rhs),rhsMax =  -5.82799364323705E-11  9.42657183474769E-02
 cg2d: Sum(rhs),rhsMax =  -5.82540127247455E-11  9.41728300038973E-02
 cg2d: Sum(rhs),rhsMax =  -5.82312531527407E-11  9.40736650194374E-02
 cg2d: Sum(rhs),rhsMax =  -5.81972803281872E-11  9.39744713404631E-02
 cg2d: Sum(rhs),rhsMax =  -5.81878434324778E-11  9.38613883895365E-02
 cg2d: Sum(rhs),rhsMax =  -5.81510950503628E-11  9.37450458930446E-02
 cg2d: Sum(rhs),rhsMax =  -5.81357184614717E-11  9.36233796661912E-02
 cg2d: Sum(rhs),rhsMax =  -5.81463766025081E-11  9.34982294476749E-02
 cg2d: Sum(rhs),rhsMax =  -5.81112935549299E-11  9.33713098259217E-02
 cg2d: Sum(rhs),rhsMax =  -5.81192316495560E-11  9.32429408492836E-02
 cg2d: Sum(rhs),rhsMax =  -5.81420467327121E-11  9.31187040305267E-02
 cg2d: Sum(rhs),rhsMax =  -5.81465986471130E-11  9.29844960475283E-02
 cg2d: Sum(rhs),rhsMax =  -5.81558134982174E-11  9.28495953473520E-02
 cg2d: Sum(rhs),rhsMax =  -5.81483194928012E-11  9.27201648083901E-02
 cg2d: Sum(rhs),rhsMax =  -5.81353298834131E-11  9.25885414823755E-02
 cg2d: Sum(rhs),rhsMax =  -5.81227843632348E-11  9.24470456351404E-02
 cg2d: Sum(rhs),rhsMax =  -5.81228676299617E-11  9.23040442555605E-02
 cg2d: Sum(rhs),rhsMax =  -5.81346637495983E-11  9.21583573088753E-02
 cg2d: Sum(rhs),rhsMax =  -5.81458770021470E-11  9.20153546248734E-02
 cg2d: Sum(rhs),rhsMax =  -5.81464043580837E-11  9.18660364853126E-02
 cg2d: Sum(rhs),rhsMax =  -5.81497072715820E-11  9.17195369296115E-02
 cg2d: Sum(rhs),rhsMax =  -5.81716619318939E-11  9.15685529534768E-02
 cg2d: Sum(rhs),rhsMax =  -5.81680537070639E-11  9.14217995734429E-02
 cg2d: Sum(rhs),rhsMax =  -5.81781151032246E-11  9.12718367375623E-02
 cg2d: Sum(rhs),rhsMax =  -5.81734382887333E-11  9.11260107106148E-02
 cg2d: Sum(rhs),rhsMax =  -5.81725778658893E-11  9.09800042326993E-02
 cg2d: Sum(rhs),rhsMax =  -5.81834927460001E-11  9.08351805492202E-02
 cg2d: Sum(rhs),rhsMax =  -5.81857236003902E-11  9.06919820413682E-02
 cg2d: Sum(rhs),rhsMax =  -5.81889866152485E-11  9.05507145426512E-02
 cg2d: Sum(rhs),rhsMax =  -5.81996256743267E-11  9.04116654454120E-02
 cg2d: Sum(rhs),rhsMax =  -5.81917153352762E-11  9.02751154785011E-02
 cg2d: Sum(rhs),rhsMax =  -5.82016518313466E-11  9.01413775055853E-02
 cg2d: Sum(rhs),rhsMax =  -5.81765885465657E-11  9.00100382729110E-02
 cg2d: Sum(rhs),rhsMax =  -5.81655834608341E-11  8.98825183906876E-02
 cg2d: Sum(rhs),rhsMax =  -5.81520803732971E-11  8.97586284151433E-02
 cg2d: Sum(rhs),rhsMax =  -5.80954451212534E-11  8.96778013864176E-02
 cg2d: Sum(rhs),rhsMax =  -5.80716585929508E-11  8.95633418111331E-02
 cg2d: Sum(rhs),rhsMax =  -5.80359926782847E-11  8.94559272943574E-02
 cg2d: Sum(rhs),rhsMax =  -5.80213654899353E-11  8.93574123794013E-02
 cg2d: Sum(rhs),rhsMax =  -5.79909176234850E-11  8.92641114645094E-02
 cg2d: Sum(rhs),rhsMax =  -5.79443992787532E-11  8.91754392137211E-02
 cg2d: Sum(rhs),rhsMax =  -5.78998515798901E-11  8.90922136407853E-02
 cg2d: Sum(rhs),rhsMax =  -5.78532222128558E-11  8.90143973557155E-02
 cg2d: Sum(rhs),rhsMax =  -5.78178060983703E-11  8.89418473368766E-02
 cg2d: Sum(rhs),rhsMax =  -5.77594083672750E-11  8.88746961952969E-02
 cg2d: Sum(rhs),rhsMax =  -5.77103365095866E-11  8.88131200696701E-02
 cg2d: Sum(rhs),rhsMax =  -5.76686476350119E-11  8.87571992534673E-02
 cg2d: Sum(rhs),rhsMax =  -5.76310110744771E-11  8.87070147990768E-02
 cg2d: Sum(rhs),rhsMax =  -5.75550163084415E-11  8.86621875586201E-02
 cg2d: Sum(rhs),rhsMax =  -5.74810754550015E-11  8.86232532220734E-02
 cg2d: Sum(rhs),rhsMax =  -5.74116865159624E-11  8.85898857238175E-02
 cg2d: Sum(rhs),rhsMax =  -5.73327496589116E-11  8.85620227367140E-02
 cg2d: Sum(rhs),rhsMax =  -5.72751290839335E-11  8.85395735523982E-02
 cg2d: Sum(rhs),rhsMax =  -5.71915848013305E-11  8.85224455064105E-02
 cg2d: Sum(rhs),rhsMax =  -5.71285241335318E-11  8.85104719905809E-02
 cg2d: Sum(rhs),rhsMax =  -5.70557490142676E-11  8.85034997645905E-02
 cg2d: Sum(rhs),rhsMax =  -5.69654323712143E-11  8.85014162481871E-02
 cg2d: Sum(rhs),rhsMax =  -5.68850522242315E-11  8.85031272594369E-02
 cg2d: Sum(rhs),rhsMax =  -5.68134428391431E-11  8.85096602885767E-02
 cg2d: Sum(rhs),rhsMax =  -5.67291769115741E-11  8.85204385818247E-02
 cg2d: Sum(rhs),rhsMax =  -5.66644509092384E-11  8.85349625293079E-02
 cg2d: Sum(rhs),rhsMax =  -5.65933966356624E-11  8.85528562536883E-02
 cg2d: Sum(rhs),rhsMax =  -5.65176794253830E-11  8.85737813902626E-02
 cg2d: Sum(rhs),rhsMax =  -5.64165381078396E-11  8.85973698791681E-02
 cg2d: Sum(rhs),rhsMax =  -5.63230573291662E-11  8.86296731803053E-02
 cg2d: Sum(rhs),rhsMax =  -5.62400126469242E-11  8.86721733569306E-02
 cg2d: Sum(rhs),rhsMax =  -5.61116708652776E-11  8.87263852911574E-02
 cg2d: Sum(rhs),rhsMax =  -5.60106405700367E-11  8.87911608372612E-02
 cg2d: Sum(rhs),rhsMax =  -5.59280399770046E-11  8.88662158730488E-02
 cg2d: Sum(rhs),rhsMax =  -5.58204593659184E-11  8.89416196621646E-02
 cg2d: Sum(rhs),rhsMax =  -5.57562884750951E-11  8.90169806591389E-02
 cg2d: Sum(rhs),rhsMax =  -5.56548140906443E-11  8.90947870640919E-02
 cg2d: Sum(rhs),rhsMax =  -5.55522294831690E-11  8.91761718420755E-02
 cg2d: Sum(rhs),rhsMax =  -5.54598589275201E-11  8.92625723811470E-02
 cg2d: Sum(rhs),rhsMax =  -5.53610490783285E-11  8.93432032653685E-02
 cg2d: Sum(rhs),rhsMax =  -5.52662360320255E-11  8.94179162425940E-02
 cg2d: Sum(rhs),rhsMax =  -5.51662049375068E-11  8.94860326672918E-02
 cg2d: Sum(rhs),rhsMax =  -5.50448575609153E-11  8.95523039481202E-02
 cg2d: Sum(rhs),rhsMax =  -5.49627010570930E-11  8.96189235912030E-02
 cg2d: Sum(rhs),rhsMax =  -5.48499023977911E-11  8.96791923270275E-02
 cg2d: Sum(rhs),rhsMax =  -5.47234479952863E-11  8.97361077556239E-02
 cg2d: Sum(rhs),rhsMax =  -5.46007683510652E-11  8.97911512588511E-02
 cg2d: Sum(rhs),rhsMax =  -5.44787548406589E-11  8.98598119883259E-02
 cg2d: Sum(rhs),rhsMax =  -5.43548539511107E-11  8.99482109303777E-02
 cg2d: Sum(rhs),rhsMax =  -5.42738076703131E-11  9.00424384554854E-02
 cg2d: Sum(rhs),rhsMax =  -5.41311440116488E-11  9.01470585519829E-02
 cg2d: Sum(rhs),rhsMax =  -5.40361089207408E-11  9.02516792192798E-02
 cg2d: Sum(rhs),rhsMax =  -5.39126521204025E-11  9.03678185585580E-02
 cg2d: Sum(rhs),rhsMax =  -5.38000755057055E-11  9.05008502376174E-02
 cg2d: Sum(rhs),rhsMax =  -5.37088151730813E-11  9.06265057538718E-02
 cg2d: Sum(rhs),rhsMax =  -5.35361754927521E-11  9.07571740337140E-02
 cg2d: Sum(rhs),rhsMax =  -5.34842170551997E-11  9.08877183836410E-02
 cg2d: Sum(rhs),rhsMax =  -5.34124966478089E-11  9.09971174486023E-02
 cg2d: Sum(rhs),rhsMax =  -5.33109112410557E-11  9.10839802219136E-02
 cg2d: Sum(rhs),rhsMax =  -5.32353050530787E-11  9.11526277032210E-02
 cg2d: Sum(rhs),rhsMax =  -5.31441557427570E-11  9.12050477174719E-02
 cg2d: Sum(rhs),rhsMax =  -5.31354960031649E-11  9.12427195413495E-02
 cg2d: Sum(rhs),rhsMax =  -5.30692156885948E-11  9.12723600295031E-02
 cg2d: Sum(rhs),rhsMax =  -5.30232524553753E-11  9.12970689414584E-02
 cg2d: Sum(rhs),rhsMax =  -5.30098187567773E-11  9.13198766916339E-02
 cg2d: Sum(rhs),rhsMax =  -5.29468691112811E-11  9.13377566902068E-02
 cg2d: Sum(rhs),rhsMax =  -5.28995736104321E-11  9.13521856573224E-02
 cg2d: Sum(rhs),rhsMax =  -5.28164179058876E-11  9.13623866490303E-02
 cg2d: Sum(rhs),rhsMax =  -5.28361798757260E-11  9.13687736071053E-02
 cg2d: Sum(rhs),rhsMax =  -5.28571630908914E-11  9.13717641934910E-02
 cg2d: Sum(rhs),rhsMax =  -5.28808108413159E-11  9.13685189326670E-02
 cg2d: Sum(rhs),rhsMax =  -5.28949106737286E-11  9.13537546077575E-02
 cg2d: Sum(rhs),rhsMax =  -5.29434274199048E-11  9.13285215956717E-02
 cg2d: Sum(rhs),rhsMax =  -5.30198107639990E-11  9.14210550279068E-02
 cg2d: Sum(rhs),rhsMax =  -5.30541166554599E-11  9.14240298507305E-02
 cg2d: Sum(rhs),rhsMax =  -5.31796828795450E-11  9.13291673822396E-02
 cg2d: Sum(rhs),rhsMax =  -5.32976995870627E-11  9.12571084659173E-02
 cg2d: Sum(rhs),rhsMax =  -5.33966204585568E-11  9.11860145573887E-02
 cg2d: Sum(rhs),rhsMax =  -5.34984279099149E-11  9.11097518917401E-02
 cg2d: Sum(rhs),rhsMax =  -5.36378719218078E-11  9.10312704530803E-02
 cg2d: Sum(rhs),rhsMax =  -5.37582200976772E-11  9.09520241975804E-02
 cg2d: Sum(rhs),rhsMax =  -5.38774580505219E-11  9.08743609486075E-02
 cg2d: Sum(rhs),rhsMax =  -5.40244515789823E-11  9.07983901954268E-02
 cg2d: Sum(rhs),rhsMax =  -5.41439115764319E-11  9.07253986121932E-02
 cg2d: Sum(rhs),rhsMax =  -5.42834666106273E-11  9.06554019092966E-02
 cg2d: Sum(rhs),rhsMax =  -5.44485567743891E-11  9.05899771939544E-02
 cg2d: Sum(rhs),rhsMax =  -5.46304113058227E-11  9.05312356755173E-02
 cg2d: Sum(rhs),rhsMax =  -5.47454304111739E-11  9.04733551321172E-02
 cg2d: Sum(rhs),rhsMax =  -5.48845413561594E-11  9.04221357729527E-02
 cg2d: Sum(rhs),rhsMax =  -5.50416379141438E-11  9.03757897179115E-02
 cg2d: Sum(rhs),rhsMax =  -5.51909629109559E-11  9.03353520494054E-02
 cg2d: Sum(rhs),rhsMax =  -5.52942136522461E-11  9.02998934175556E-02
 cg2d: Sum(rhs),rhsMax =  -5.53733725539018E-11  9.02696395841733E-02
 cg2d: Sum(rhs),rhsMax =  -5.54332135749291E-11  9.02445288894671E-02
 cg2d: Sum(rhs),rhsMax =  -5.54962742427278E-11  9.02250135733178E-02
 cg2d: Sum(rhs),rhsMax =  -5.55788748357600E-11  9.02107680372289E-02
 cg2d: Sum(rhs),rhsMax =  -5.56616974733970E-11  9.02015730276801E-02
 cg2d: Sum(rhs),rhsMax =  -5.57092150188510E-11  9.01972240159219E-02
 cg2d: Sum(rhs),rhsMax =  -5.57771606679580E-11  9.01951832141364E-02
 cg2d: Sum(rhs),rhsMax =  -5.58475488077192E-11  9.01984268538063E-02
 cg2d: Sum(rhs),rhsMax =  -5.59492452367749E-11  9.02058842749980E-02
 cg2d: Sum(rhs),rhsMax =  -5.60169688412770E-11  9.02169818592799E-02
 cg2d: Sum(rhs),rhsMax =  -5.60703705687615E-11  9.02315783916178E-02
 cg2d: Sum(rhs),rhsMax =  -5.61319879466282E-11  9.02494341428108E-02
 cg2d: Sum(rhs),rhsMax =  -5.62092594691421E-11  9.02677737476095E-02
 cg2d: Sum(rhs),rhsMax =  -5.62745405829901E-11  9.02890600468626E-02
 cg2d: Sum(rhs),rhsMax =  -5.63457058788686E-11  9.03124455326231E-02
 cg2d: Sum(rhs),rhsMax =  -5.64259750035490E-11  9.03373831348655E-02
 cg2d: Sum(rhs),rhsMax =  -5.65044677713900E-11  9.03636971684938E-02
 cg2d: Sum(rhs),rhsMax =  -5.65688607068182E-11  9.03911139901754E-02
 cg2d: Sum(rhs),rhsMax =  -5.66357516440519E-11  9.04194670072482E-02
 cg2d: Sum(rhs),rhsMax =  -5.67370039838977E-11  9.04486385994656E-02
 cg2d: Sum(rhs),rhsMax =  -5.68176061754855E-11  9.04784957489931E-02
 cg2d: Sum(rhs),rhsMax =  -5.68901592501447E-11  9.05086701828120E-02
 cg2d: Sum(rhs),rhsMax =  -5.69498892488696E-11  9.05392022470914E-02
 cg2d: Sum(rhs),rhsMax =  -5.70328784199603E-11  9.05700302426674E-02
 cg2d: Sum(rhs),rhsMax =  -5.71425129436420E-11  9.05856996525096E-02
 cg2d: Sum(rhs),rhsMax =  -5.72381586572135E-11  9.06123409676558E-02
 cg2d: Sum(rhs),rhsMax =  -5.73383562851859E-11  9.06423955726633E-02
 cg2d: Sum(rhs),rhsMax =  -5.74086889137959E-11  9.06735441168571E-02
 cg2d: Sum(rhs),rhsMax =  -5.74789660312547E-11  9.07060592197532E-02
 cg2d: Sum(rhs),rhsMax =  -5.75569591987346E-11  9.07384933330851E-02
 cg2d: Sum(rhs),rhsMax =  -5.76263481377737E-11  9.07708792682329E-02
 cg2d: Sum(rhs),rhsMax =  -5.77157210912560E-11  9.08045264332047E-02
 cg2d: Sum(rhs),rhsMax =  -5.78033731990502E-11  9.08393214751089E-02
 cg2d: Sum(rhs),rhsMax =  -5.78809222773202E-11  9.08753106525416E-02
 cg2d: Sum(rhs),rhsMax =  -5.79792325261508E-11  9.09130560668771E-02
 cg2d: Sum(rhs),rhsMax =  -5.80724357490681E-11  9.09519659707822E-02
 cg2d: Sum(rhs),rhsMax =  -5.81659997944683E-11  9.09925342103604E-02
 cg2d: Sum(rhs),rhsMax =  -5.82351111777513E-11  9.10350200934852E-02
 cg2d: Sum(rhs),rhsMax =  -5.83252612873508E-11  9.10792597951430E-02
 cg2d: Sum(rhs),rhsMax =  -5.84084725030465E-11  9.11256702543940E-02
 cg2d: Sum(rhs),rhsMax =  -5.84879089604584E-11  9.11761559315214E-02
 cg2d: Sum(rhs),rhsMax =  -5.85595599789102E-11  9.12278500101388E-02
 cg2d: Sum(rhs),rhsMax =  -5.86507925559587E-11  9.12805364406858E-02
 cg2d: Sum(rhs),rhsMax =  -5.87300069687657E-11  9.13327393884808E-02
 cg2d: Sum(rhs),rhsMax =  -5.87997636691817E-11  9.13897767708092E-02
 cg2d: Sum(rhs),rhsMax =  -5.88815229213280E-11  9.14490019398410E-02
 cg2d: Sum(rhs),rhsMax =  -5.89523221905530E-11  9.15116827405226E-02
 cg2d: Sum(rhs),rhsMax =  -5.90123019894584E-11  9.15778091752635E-02
 cg2d: Sum(rhs),rhsMax =  -5.90890669727173E-11  9.16346291285120E-02
 cg2d: Sum(rhs),rhsMax =  -5.91505455727059E-11  9.17025124629489E-02
 cg2d: Sum(rhs),rhsMax =  -5.92097620932819E-11  9.17793242696657E-02
 cg2d: Sum(rhs),rhsMax =  -5.92470378313337E-11  9.19130530672097E-02
 cg2d: Sum(rhs),rhsMax =  -5.92911691965625E-11  9.19984452795142E-02
 cg2d: Sum(rhs),rhsMax =  -5.93593230124867E-11  9.20738140666797E-02
 cg2d: Sum(rhs),rhsMax =  -5.93725069109041E-11  9.21977301589800E-02
 cg2d: Sum(rhs),rhsMax =  -5.94160554090450E-11  9.22903964097077E-02
 cg2d: Sum(rhs),rhsMax =  -5.94656823782458E-11  9.23801409429624E-02
 cg2d: Sum(rhs),rhsMax =  -5.95307414474888E-11  9.24769638296621E-02
 cg2d: Sum(rhs),rhsMax =  -5.95767879474352E-11  9.25715994686563E-02
 cg2d: Sum(rhs),rhsMax =  -5.96194482671564E-11  9.26736348510962E-02
 cg2d: Sum(rhs),rhsMax =  -5.96425409060686E-11  9.27732259358396E-02
 cg2d: Sum(rhs),rhsMax =  -5.96965810117922E-11  9.28745983649232E-02
 cg2d: Sum(rhs),rhsMax =  -5.97284999237502E-11  9.29799990869442E-02
 cg2d: Sum(rhs),rhsMax =  -5.97710214655933E-11  9.30789477659205E-02
 cg2d: Sum(rhs),rhsMax =  -5.97454863360269E-11  9.32663385359443E-02
 cg2d: Sum(rhs),rhsMax =  -5.97586979900200E-11  9.33661189242284E-02
 cg2d: Sum(rhs),rhsMax =  -5.98090466041867E-11  9.34779595057442E-02
 cg2d: Sum(rhs),rhsMax =  -5.98332494661236E-11  9.36008488451570E-02
 cg2d: Sum(rhs),rhsMax =  -5.98580074395727E-11  9.37225587295137E-02
 cg2d: Sum(rhs),rhsMax =  -5.98883720392962E-11  9.38408923875719E-02
 cg2d: Sum(rhs),rhsMax =  -5.99078009422271E-11  9.39585371884098E-02
 cg2d: Sum(rhs),rhsMax =  -5.99461591477279E-11  9.40763015369989E-02
 cg2d: Sum(rhs),rhsMax =  -5.99304494919295E-11  9.41909662583852E-02
 cg2d: Sum(rhs),rhsMax =  -5.99755245467293E-11  9.43011659066913E-02
 cg2d: Sum(rhs),rhsMax =  -5.99826299740869E-11  9.44085115004969E-02
 cg2d: Sum(rhs),rhsMax =  -5.99976179849193E-11  9.45124307384233E-02
 cg2d: Sum(rhs),rhsMax =  -6.00361982350250E-11  9.46131799404712E-02
 cg2d: Sum(rhs),rhsMax =  -6.00734462175012E-11  9.47087710100957E-02
 cg2d: Sum(rhs),rhsMax =  -6.01081406870208E-11  9.47984087994285E-02
 cg2d: Sum(rhs),rhsMax =  -6.01267924338345E-11  9.48828766867394E-02
 cg2d: Sum(rhs),rhsMax =  -6.01704241987022E-11  9.49616182957606E-02
 cg2d: Sum(rhs),rhsMax =  -6.02283778405877E-11  9.50340520296744E-02
 cg2d: Sum(rhs),rhsMax =  -6.02495831003580E-11  9.50993921439403E-02
 cg2d: Sum(rhs),rhsMax =  -6.02999872256760E-11  9.51568660551317E-02
 cg2d: Sum(rhs),rhsMax =  -6.03360694739763E-11  9.52072351173858E-02
 cg2d: Sum(rhs),rhsMax =  -6.03938010712568E-11  9.52504244777254E-02
 cg2d: Sum(rhs),rhsMax =  -6.04419847505255E-11  9.52853657803372E-02
 cg2d: Sum(rhs),rhsMax =  -6.05058225744415E-11  9.53116159268361E-02
 cg2d: Sum(rhs),rhsMax =  -6.05420158450443E-11  9.53286475254049E-02
 cg2d: Sum(rhs),rhsMax =  -6.06156236315769E-11  9.53378890129216E-02
 cg2d: Sum(rhs),rhsMax =  -6.06354966237177E-11  9.53387157089630E-02
 cg2d: Sum(rhs),rhsMax =  -6.07185413059597E-11  9.53304736483559E-02
 cg2d: Sum(rhs),rhsMax =  -6.08062489249050E-11  9.53133847539349E-02
 cg2d: Sum(rhs),rhsMax =  -6.08777472876909E-11  9.52877758873338E-02
 cg2d: Sum(rhs),rhsMax =  -6.09958750175110E-11  9.52559520142224E-02
 cg2d: Sum(rhs),rhsMax =  -6.10578254622851E-11  9.52119393412033E-02
 cg2d: Sum(rhs),rhsMax =  -6.11523054416807E-11  9.51604980789004E-02
 cg2d: Sum(rhs),rhsMax =  -6.12336847893857E-11  9.51009079501665E-02
 cg2d: Sum(rhs),rhsMax =  -6.13354922407439E-11  9.50340494420179E-02
 cg2d: Sum(rhs),rhsMax =  -6.15140161031036E-11  9.49584661946759E-02
 cg2d: Sum(rhs),rhsMax =  -6.17030870841973E-11  9.48750569363040E-02
 cg2d: Sum(rhs),rhsMax =  -6.18830542364890E-11  9.47846990860488E-02
 cg2d: Sum(rhs),rhsMax =  -6.20156148656292E-11  9.46874263831560E-02
 cg2d: Sum(rhs),rhsMax =  -6.21496187847015E-11  9.46568151094004E-02
 cg2d: Sum(rhs),rhsMax =  -6.17421669346641E-11  9.54292776129871E-02
 cg2d: Sum(rhs),rhsMax =  -6.13487038947369E-11  9.61640901794359E-02
 cg2d: Sum(rhs),rhsMax =  -6.09856609656845E-11  9.68609405415466E-02
 cg2d: Sum(rhs),rhsMax =  -6.06567018834880E-11  9.75195364248918E-02
 cg2d: Sum(rhs),rhsMax =  -6.03642691388018E-11  9.81396054471200E-02
 cg2d: Sum(rhs),rhsMax =  -6.01250160769951E-11  9.87208950370293E-02
 cg2d: Sum(rhs),rhsMax =  -5.98580074395727E-11  9.92631723227831E-02
 cg2d: Sum(rhs),rhsMax =  -5.96135363295502E-11  9.97662238998607E-02
 cg2d: Sum(rhs),rhsMax =  -5.93793902936568E-11  1.00229855588696E-01
 cg2d: Sum(rhs),rhsMax =  -5.91943161154518E-11  1.00653892150709E-01
 cg2d: Sum(rhs),rhsMax =  -5.90449911186397E-11  1.01038176928862E-01
 cg2d: Sum(rhs),rhsMax =  -5.89426285557693E-11  1.01382571363042E-01
 cg2d: Sum(rhs),rhsMax =  -5.88635806764159E-11  1.01686954378454E-01
 cg2d: Sum(rhs),rhsMax =  -5.87532245077682E-11  1.01951221674562E-01
 cg2d: Sum(rhs),rhsMax =  -5.85338444381023E-11  1.02175284846520E-01
 cg2d: Sum(rhs),rhsMax =  -5.84882142717902E-11  1.02359070359185E-01
 cg2d: Sum(rhs),rhsMax =  -5.85559378762923E-11  1.02502518415672E-01
 cg2d: Sum(rhs),rhsMax =  -5.85622661475327E-11  1.02605581781090E-01
 cg2d: Sum(rhs),rhsMax =  -5.85702597533100E-11  1.02668224639914E-01
 cg2d: Sum(rhs),rhsMax =  -5.84589043839401E-11  1.02690421666356E-01
 cg2d: Sum(rhs),rhsMax =  -5.85059778401842E-11  1.02672157193487E-01
 cg2d: Sum(rhs),rhsMax =  -5.85050896617645E-11  1.02613424745606E-01
 cg2d: Sum(rhs),rhsMax =  -5.84704507033962E-11  1.02514226864988E-01
 cg2d: Sum(rhs),rhsMax =  -5.85350656834294E-11  1.02374576035677E-01
 cg2d: Sum(rhs),rhsMax =  -5.85925752361049E-11  1.02194496134747E-01
 cg2d: Sum(rhs),rhsMax =  -5.86598547513972E-11  1.01974024470056E-01
 cg2d: Sum(rhs),rhsMax =  -5.87353499170717E-11  1.01713214411272E-01
 cg2d: Sum(rhs),rhsMax =  -5.88327164763314E-11  1.01412138397351E-01
 cg2d: Sum(rhs),rhsMax =  -5.89485127377998E-11  1.01070891611886E-01
 cg2d: Sum(rhs),rhsMax =  -5.91143800576788E-11  1.00689596086433E-01
 cg2d: Sum(rhs),rhsMax =  -5.93368687518137E-11  1.00268404782396E-01
 cg2d: Sum(rhs),rhsMax =  -5.95552496207574E-11  9.98075054736145E-02
 cg2d: Sum(rhs),rhsMax =  -5.98170402099640E-11  9.93071235054627E-02
 cg2d: Sum(rhs),rhsMax =  -6.00934857430957E-11  9.87675239441233E-02
 cg2d: Sum(rhs),rhsMax =  -6.04217786914774E-11  9.81890128802816E-02
 cg2d: Sum(rhs),rhsMax =  -6.07109917893922E-11  9.75719377520579E-02
 cg2d: Sum(rhs),rhsMax =  -6.10856920602032E-11  9.69166863059116E-02
 cg2d: Sum(rhs),rhsMax =  -6.14811535015747E-11  9.62236846617625E-02
 cg2d: Sum(rhs),rhsMax =  -6.18293194420971E-11  9.54933939392639E-02
 cg2d: Sum(rhs),rhsMax =  -6.22677465145216E-11  9.47263059813131E-02
 cg2d: Sum(rhs),rhsMax =  -6.26971807804466E-11  9.39229385784231E-02
 cg2d: Sum(rhs),rhsMax =  -6.32133234645949E-11  9.30838302613639E-02
 cg2d: Sum(rhs),rhsMax =  -6.37174757400771E-11  9.22095350676760E-02
 cg2d: Sum(rhs),rhsMax =  -6.43279873813185E-11  9.13006176081976E-02
 cg2d: Sum(rhs),rhsMax =  -6.49230669225176E-11  9.03576486616537E-02
 cg2d: Sum(rhs),rhsMax =  -6.48866516073099E-11  9.03601599784167E-02
 cg2d: Sum(rhs),rhsMax =  -6.48116005308452E-11  9.03808704516098E-02
 cg2d: Sum(rhs),rhsMax =  -6.47503162198859E-11  9.04039740862912E-02
 cg2d: Sum(rhs),rhsMax =  -6.47014664068024E-11  9.04251979827940E-02
 cg2d: Sum(rhs),rhsMax =  -6.45927755726916E-11  9.04587983986928E-02
 cg2d: Sum(rhs),rhsMax =  -6.45067332882832E-11  9.04896953848253E-02
 cg2d: Sum(rhs),rhsMax =  -6.44139186434245E-11  9.05202732349665E-02
 cg2d: Sum(rhs),rhsMax =  -6.43265440913865E-11  9.05519895891322E-02
 cg2d: Sum(rhs),rhsMax =  -6.42113029414304E-11  9.05842659120125E-02
 cg2d: Sum(rhs),rhsMax =  -6.41366959541756E-11  9.06148708688183E-02
 cg2d: Sum(rhs),rhsMax =  -6.40411057517554E-11  9.06363349361470E-02
 cg2d: Sum(rhs),rhsMax =  -6.39435171478908E-11  9.06716045222110E-02
 cg2d: Sum(rhs),rhsMax =  -6.38435970756746E-11  9.07056390402677E-02
 cg2d: Sum(rhs),rhsMax =  -6.37723207574936E-11  9.07388781421988E-02
 cg2d: Sum(rhs),rhsMax =  -6.36513064478095E-11  9.07723320905791E-02
 cg2d: Sum(rhs),rhsMax =  -6.35540509108523E-11  9.08053144556255E-02
 cg2d: Sum(rhs),rhsMax =  -6.34555741285681E-11  9.08375376271311E-02
 cg2d: Sum(rhs),rhsMax =  -6.33658681081783E-11  9.08687080458579E-02
 cg2d: Sum(rhs),rhsMax =  -6.32365271258095E-11  9.08984342341354E-02
 cg2d: Sum(rhs),rhsMax =  -6.31615870716473E-11  9.09244905696334E-02
 cg2d: Sum(rhs),rhsMax =  -6.30586138861133E-11  9.09480713810283E-02
 cg2d: Sum(rhs),rhsMax =  -6.29674645757916E-11  9.09714427756058E-02
 cg2d: Sum(rhs),rhsMax =  -6.28903040755802E-11  9.09917705696983E-02
 cg2d: Sum(rhs),rhsMax =  -6.28020413451225E-11  9.10050023048567E-02
 cg2d: Sum(rhs),rhsMax =  -6.27111140794057E-11  9.10101139847324E-02
 cg2d: Sum(rhs),rhsMax =  -6.25953178179373E-11  9.10079809831780E-02
 cg2d: Sum(rhs),rhsMax =  -6.25141605148372E-11  9.09996814966842E-02
 cg2d: Sum(rhs),rhsMax =  -6.24466034437887E-11  9.09846737984216E-02
 cg2d: Sum(rhs),rhsMax =  -6.22983331588500E-11  9.10543104958224E-02
 cg2d: Sum(rhs),rhsMax =  -6.22473739220197E-11  9.09822353250089E-02
 cg2d: Sum(rhs),rhsMax =  -6.21835916092550E-11  9.09192299351352E-02
 cg2d: Sum(rhs),rhsMax =  -6.21214746310272E-11  9.08524026980862E-02
 cg2d: Sum(rhs),rhsMax =  -6.20870022061126E-11  9.07744131323143E-02
 cg2d: Sum(rhs),rhsMax =  -6.20639095672004E-11  9.06883540048099E-02
 cg2d: Sum(rhs),rhsMax =  -6.20224427372307E-11  9.05958507460341E-02
 cg2d: Sum(rhs),rhsMax =  -6.19632678500182E-11  9.04974969032073E-02
 cg2d: Sum(rhs),rhsMax =  -6.19193307738186E-11  9.03933555721689E-02
 cg2d: Sum(rhs),rhsMax =  -6.19014284275465E-11  9.02833962134894E-02
 cg2d: Sum(rhs),rhsMax =  -6.18763651427656E-11  9.01681921244606E-02
 cg2d: Sum(rhs),rhsMax =  -6.18466944324325E-11  9.00479628868813E-02
 cg2d: Sum(rhs),rhsMax =  -6.18290141307654E-11  8.99228282126933E-02
 cg2d: Sum(rhs),rhsMax =  -6.18420037401535E-11  8.97930254982441E-02
 cg2d: Sum(rhs),rhsMax =  -6.18410322950069E-11  8.96585155647383E-02
 cg2d: Sum(rhs),rhsMax =  -6.18407547392508E-11  8.95194629125285E-02
 cg2d: Sum(rhs),rhsMax =  -6.18132212082401E-11  8.93759880088044E-02
 cg2d: Sum(rhs),rhsMax =  -6.18126799745156E-11  8.92287506706509E-02
 cg2d: Sum(rhs),rhsMax =  -6.18063378254874E-11  8.90785124558397E-02
 cg2d: Sum(rhs),rhsMax =  -6.18144285757793E-11  8.89254663110154E-02
 cg2d: Sum(rhs),rhsMax =  -6.17979001305002E-11  8.87697418289795E-02
 cg2d: Sum(rhs),rhsMax =  -6.17895457022399E-11  8.86117064550944E-02
 cg2d: Sum(rhs),rhsMax =  -6.17875655153921E-11  8.84520369864522E-02
(PID.TID 0000.0001)      cg2d_init_res =   1.08091060002848E-01
(PID.TID 0000.0001)      cg2d_iters(min,last) =      -1      38
(PID.TID 0000.0001)      cg2d_last_res =   8.02733217439404E-14
(PID.TID 0000.0001) // =======================================================
(PID.TID 0000.0001) // Begin MONITOR dynamic field statistics
(PID.TID 0000.0001) // =======================================================
(PID.TID 0000.0001) %MON time_tsnumber                =                  4320
(PID.TID 0000.0001) %MON time_secondsf                =   6.4800000000000E+04
(PID.TID 0000.0001) %MON dynstat_eta_max              =   1.0025940089653E-02
(PID.TID 0000.0001) %MON dynstat_eta_min              =  -1.6938025389423E-02
(PID.TID 0000.0001) %MON dynstat_eta_mean             =   1.2030705181081E-14
(PID.TID 0000.0001) %MON dynstat_eta_sd               =   3.3993436113388E-03
(PID.TID 0000.0001) %MON dynstat_eta_del2             =   7.3067940868359E-05
(PID.TID 0000.0001) %MON dynstat_uvel_max             =   1.2843197204965E+00
(PID.TID 0000.0001) %MON dynstat_uvel_min             =  -8.3643443262136E-01
(PID.TID 0000.0001) %MON dynstat_uvel_mean            =   4.5522281312303E-01
(PID.TID 0000.0001) %MON dynstat_uvel_sd              =   6.9477381450334E-02
(PID.TID 0000.0001) %MON dynstat_uvel_del2            =   8.7883507922329E-04
(PID.TID 0000.0001) %MON dynstat_vvel_max             =   0.0000000000000E+00
(PID.TID 0000.0001) %MON dynstat_vvel_min             =   0.0000000000000E+00
(PID.TID 0000.0001) %MON dynstat_vvel_mean            =   0.0000000000000E+00
(PID.TID 0000.0001) %MON dynstat_vvel_sd              =   0.0000000000000E+00
(PID.TID 0000.0001) %MON dynstat_vvel_del2            =   0.0000000000000E+00
(PID.TID 0000.0001) %MON dynstat_wvel_max             =   3.5848682359130E-02
(PID.TID 0000.0001) %MON dynstat_wvel_min             =  -7.5715738538820E-02
(PID.TID 0000.0001) %MON dynstat_wvel_mean            =  -5.1554640741940E-20
(PID.TID 0000.0001) %MON dynstat_wvel_sd              =   4.4414741956338E-03
(PID.TID 0000.0001) %MON dynstat_wvel_del2            =   1.3707247970364E-04
(PID.TID 0000.0001) %MON dynstat_theta_max            =   1.5000000000008E+01
(PID.TID 0000.0001) %MON dynstat_theta_min            =   9.9999999999934E+00
(PID.TID 0000.0001) %MON dynstat_theta_mean           =   1.1002369881331E+01
(PID.TID 0000.0001) %MON dynstat_theta_sd             =   1.8921568950628E+00
(PID.TID 0000.0001) %MON dynstat_theta_del2           =   6.2449029817782E-04
(PID.TID 0000.0001) %MON dynstat_salt_max             =   3.5000000000000E+01
(PID.TID 0000.0001) %MON dynstat_salt_min             =   3.5000000000000E+01
(PID.TID 0000.0001) %MON dynstat_salt_mean            =   3.5000000000000E+01
(PID.TID 0000.0001) %MON dynstat_salt_sd              =   4.0500935938326E-13
(PID.TID 0000.0001) %MON dynstat_salt_del2            =   0.0000000000000E+00
(PID.TID 0000.0001) %MON dynstat_sst_max              =   1.5000000000008E+01
(PID.TID 0000.0001) %MON dynstat_sst_min              =   1.4999999998136E+01
(PID.TID 0000.0001) %MON dynstat_sst_mean             =   1.4999999999969E+01
(PID.TID 0000.0001) %MON dynstat_sst_sd               =   1.9635924965532E-10
(PID.TID 0000.0001) %MON dynstat_sst_del2             =   6.0779126400611E-12
(PID.TID 0000.0001) %MON dynstat_sss_max              =   3.5000000000000E+01
(PID.TID 0000.0001) %MON dynstat_sss_min              =   3.5000000000000E+01
(PID.TID 0000.0001) %MON dynstat_sss_mean             =   3.5000000000000E+01
(PID.TID 0000.0001) %MON dynstat_sss_sd               =   4.2632564145606E-14
(PID.TID 0000.0001) %MON dynstat_sss_del2             =   0.0000000000000E+00
(PID.TID 0000.0001) %MON forcing_qnet_max             =   0.0000000000000E+00
(PID.TID 0000.0001) %MON forcing_qnet_min             =   0.0000000000000E+00
(PID.TID 0000.0001) %MON forcing_qnet_mean            =   0.0000000000000E+00
(PID.TID 0000.0001) %MON forcing_qnet_sd              =   0.0000000000000E+00
(PID.TID 0000.0001) %MON forcing_qnet_del2            =   0.0000000000000E+00
(PID.TID 0000.0001) %MON forcing_qsw_max              =   0.0000000000000E+00
(PID.TID 0000.0001) %MON forcing_qsw_min              =   0.0000000000000E+00
(PID.TID 0000.0001) %MON forcing_qsw_mean             =   0.0000000000000E+00
(PID.TID 0000.0001) %MON forcing_qsw_sd               =   0.0000000000000E+00
(PID.TID 0000.0001) %MON forcing_qsw_del2             =   0.0000000000000E+00
(PID.TID 0000.0001) %MON forcing_empmr_max            =   0.0000000000000E+00
(PID.TID 0000.0001) %MON forcing_empmr_min            =   0.0000000000000E+00
(PID.TID 0000.0001) %MON forcing_empmr_mean           =   0.0000000000000E+00
(PID.TID 0000.0001) %MON forcing_empmr_sd             =   0.0000000000000E+00
(PID.TID 0000.0001) %MON forcing_empmr_del2           =   0.0000000000000E+00
(PID.TID 0000.0001) %MON forcing_fu_max               =   0.0000000000000E+00
(PID.TID 0000.0001) %MON forcing_fu_min               =   0.0000000000000E+00
(PID.TID 0000.0001) %MON forcing_fu_mean              =   0.0000000000000E+00
(PID.TID 0000.0001) %MON forcing_fu_sd                =   0.0000000000000E+00
(PID.TID 0000.0001) %MON forcing_fu_del2              =   0.0000000000000E+00
(PID.TID 0000.0001) %MON forcing_fv_max               =   0.0000000000000E+00
(PID.TID 0000.0001) %MON forcing_fv_min               =   0.0000000000000E+00
(PID.TID 0000.0001) %MON forcing_fv_mean              =   0.0000000000000E+00
(PID.TID 0000.0001) %MON forcing_fv_sd                =   0.0000000000000E+00
(PID.TID 0000.0001) %MON forcing_fv_del2              =   0.0000000000000E+00
(PID.TID 0000.0001) %MON advcfl_uvel_max              =   7.4120191653709E-02
(PID.TID 0000.0001) %MON advcfl_vvel_max              =   0.0000000000000E+00
(PID.TID 0000.0001) %MON advcfl_wvel_max              =   4.6321770183110E-01
(PID.TID 0000.0001) %MON advcfl_W_hf_max              =   4.6825723443562E-01
(PID.TID 0000.0001) %MON pe_b_mean                    =   2.8640051397820E-07
(PID.TID 0000.0001) %MON ke_max                       =   4.3606408945582E-01
(PID.TID 0000.0001) %MON ke_mean                      =   1.0606023339954E-01
(PID.TID 0000.0001) %MON ke_vol                       =   9.6656886657870E+10
(PID.TID 0000.0001) %MON vort_r_min                   =   0.0000000000000E+00
(PID.TID 0000.0001) %MON vort_r_max                   =   0.0000000000000E+00
(PID.TID 0000.0001) %MON vort_a_mean                  =   0.0000000000000E+00
(PID.TID 0000.0001) %MON vort_a_sd                    =   0.0000000000000E+00
(PID.TID 0000.0001) %MON vort_p_mean                  =   0.0000000000000E+00
(PID.TID 0000.0001) %MON vort_p_sd                    =   0.0000000000000E+00
(PID.TID 0000.0001) %MON surfExpan_theta_mean         =  -2.8359907010724E-16
(PID.TID 0000.0001) %MON surfExpan_salt_mean          =  -4.3575118745906E-18
(PID.TID 0000.0001) // =======================================================
(PID.TID 0000.0001) // End MONITOR dynamic field statistics
(PID.TID 0000.0001) // =======================================================
(PID.TID 0000.0001) // =======================================================
(PID.TID 0000.0001) // Begin OBCS MONITOR field statistics
(PID.TID 0000.0001) // =======================================================
(PID.TID 0000.0001) %MON obc_E_uVel_max               =   4.4822851314926E-01
(PID.TID 0000.0001) %MON obc_E_uVel_min               =   4.4822851314926E-01
(PID.TID 0000.0001) %MON obc_E_uVel_mean              =   4.4822851314926E-01
(PID.TID 0000.0001) %MON obc_E_uVel_sd                =  -1.9428902930940E-16
(PID.TID 0000.0001) %MON obc_E_uVel_Int               =   4.4822851314926E+05
(PID.TID 0000.0001) %MON obc_W_uVel_max               =   4.4822851314926E-01
(PID.TID 0000.0001) %MON obc_W_uVel_min               =   4.4822851314926E-01
(PID.TID 0000.0001) %MON obc_W_uVel_mean              =   4.4822851314926E-01
(PID.TID 0000.0001) %MON obc_W_uVel_sd                =  -1.9428902930940E-16
(PID.TID 0000.0001) %MON obc_W_uVel_Int               =   4.4822851314926E+05
(PID.TID 0000.0001) // =======================================================
(PID.TID 0000.0001) // End OBCS MONITOR field statistics
(PID.TID 0000.0001) // =======================================================
(PID.TID 0000.0001) %CHECKPOINT      4320 0000004320
 cg2d: Sum(rhs),rhsMax =  -6.17916117578998E-11  8.82904155531569E-02
 cg2d: Sum(rhs),rhsMax =  -6.18027920507025E-11  8.81272456891191E-02
 cg2d: Sum(rhs),rhsMax =  -6.18256071338585E-11  8.79632184988648E-02
 cg2d: Sum(rhs),rhsMax =  -6.18475270997010E-11  8.77988255157510E-02
 cg2d: Sum(rhs),rhsMax =  -6.18439327526588E-11  8.76342814296025E-02
 cg2d: Sum(rhs),rhsMax =  -6.18546186492708E-11  8.74698626439042E-02
 cg2d: Sum(rhs),rhsMax =  -6.18680523478687E-11  8.73057364144079E-02
 cg2d: Sum(rhs),rhsMax =  -6.18779749661513E-11  8.71422878440764E-02
 cg2d: Sum(rhs),rhsMax =  -6.18778084326976E-11  8.69800865845390E-02
 cg2d: Sum(rhs),rhsMax =  -6.18661233353635E-11  8.68196994742830E-02
 cg2d: Sum(rhs),rhsMax =  -6.18924078654715E-11  8.66612001808227E-02
 cg2d: Sum(rhs),rhsMax =  -6.18877449287680E-11  8.65049203396164E-02
 cg2d: Sum(rhs),rhsMax =  -6.19049811412253E-11  8.63498419405942E-02
 cg2d: Sum(rhs),rhsMax =  -6.19253537337272E-11  8.61953003642179E-02
 cg2d: Sum(rhs),rhsMax =  -6.19294060477671E-11  8.60421954055062E-02
 cg2d: Sum(rhs),rhsMax =  -6.19174156391011E-11  8.58914972370771E-02
 cg2d: Sum(rhs),rhsMax =  -6.19223006204095E-11  8.57468326922423E-02
 cg2d: Sum(rhs),rhsMax =  -6.19364004528222E-11  8.56074527711247E-02
 cg2d: Sum(rhs),rhsMax =  -6.19426732129114E-11  8.54715033512379E-02
 cg2d: Sum(rhs),rhsMax =  -6.19083118102992E-11  8.53275390684047E-02
 cg2d: Sum(rhs),rhsMax =  -6.19270190682641E-11  8.51904478268623E-02
 cg2d: Sum(rhs),rhsMax =  -6.19202467078139E-11  8.50669937008046E-02
 cg2d: Sum(rhs),rhsMax =  -6.18982642919264E-11  8.49535442564619E-02
 cg2d: Sum(rhs),rhsMax =  -6.18533002594290E-11  8.48468369288251E-02
 cg2d: Sum(rhs),rhsMax =  -6.18254891726622E-11  8.47467088915421E-02
 cg2d: Sum(rhs),rhsMax =  -6.17894624355131E-11  8.46537634675250E-02
 cg2d: Sum(rhs),rhsMax =  -6.17568773897403E-11  8.45687907428145E-02
 cg2d: Sum(rhs),rhsMax =  -6.17369488864483E-11  8.44918862905568E-02
 cg2d: Sum(rhs),rhsMax =  -6.16776074657821E-11  8.44231990249195E-02
 cg2d: Sum(rhs),rhsMax =  -6.16525719365768E-11  8.43625454211183E-02
 cg2d: Sum(rhs),rhsMax =  -6.15982820306726E-11  8.43100086102204E-02
 cg2d: Sum(rhs),rhsMax =  -6.15357764743862E-11  8.42656203773830E-02
 cg2d: Sum(rhs),rhsMax =  -6.14894801742594E-11  8.42293561493705E-02
 cg2d: Sum(rhs),rhsMax =  -6.14003292653820E-11  8.42010519686250E-02
 cg2d: Sum(rhs),rhsMax =  -6.13497030954591E-11  8.41805308233379E-02
 cg2d: Sum(rhs),rhsMax =  -6.12808692679323E-11  8.41681662806347E-02
 cg2d: Sum(rhs),rhsMax =  -6.12029316116036E-11  8.41638504056274E-02
 cg2d: Sum(rhs),rhsMax =  -6.11124484350967E-11  8.41670664517206E-02
 cg2d: Sum(rhs),rhsMax =  -6.10420602953354E-11  8.41774945483884E-02
 cg2d: Sum(rhs),rhsMax =  -6.09655659289388E-11  8.41950113128730E-02
 cg2d: Sum(rhs),rhsMax =  -6.08826322689993E-11  8.42192630492045E-02
 cg2d: Sum(rhs),rhsMax =  -6.07724981449564E-11  8.42497878184161E-02
 cg2d: Sum(rhs),rhsMax =  -6.06823480353569E-11  8.42861849386317E-02
 cg2d: Sum(rhs),rhsMax =  -6.05938632602943E-11  8.43288533582627E-02
 cg2d: Sum(rhs),rhsMax =  -6.04917227420287E-11  8.43758953796399E-02
 cg2d: Sum(rhs),rhsMax =  -6.03922467590223E-11  8.44272763966799E-02
 cg2d: Sum(rhs),rhsMax =  -6.02842220587263E-11  8.44825007218051E-02
 cg2d: Sum(rhs),rhsMax =  -6.01888539009110E-11  8.45429803090212E-02
 cg2d: Sum(rhs),rhsMax =  -6.00246519155689E-11  8.46745740857041E-02
 cg2d: Sum(rhs),rhsMax =  -5.99459371031230E-11  8.47282103703333E-02
 cg2d: Sum(rhs),rhsMax =  -5.97817351177810E-11  8.47914588527804E-02
 cg2d: Sum(rhs),rhsMax =  -5.96540594699491E-11  8.48613436271431E-02
 cg2d: Sum(rhs),rhsMax =  -5.94925220198661E-11  8.49327375095688E-02
 cg2d: Sum(rhs),rhsMax =  -5.93449733798934E-11  8.50048267979680E-02
 cg2d: Sum(rhs),rhsMax =  -5.92520477127323E-11  8.50772673478611E-02
 cg2d: Sum(rhs),rhsMax =  -5.90872906158779E-11  8.51494632054004E-02
 cg2d: Sum(rhs),rhsMax =  -5.90092419372468E-11  8.52209692400585E-02
 cg2d: Sum(rhs),rhsMax =  -5.88865622930257E-11  8.52912554165016E-02
 cg2d: Sum(rhs),rhsMax =  -5.87654369610391E-11  8.53603624555890E-02
 cg2d: Sum(rhs),rhsMax =  -5.86534154578544E-11  8.54276709229019E-02
 cg2d: Sum(rhs),rhsMax =  -5.85387294194106E-11  8.54927154443136E-02
 cg2d: Sum(rhs),rhsMax =  -5.84181591989363E-11  8.55552426185933E-02
 cg2d: Sum(rhs),rhsMax =  -5.83452175462185E-11  8.56149520959028E-02
 cg2d: Sum(rhs),rhsMax =  -5.82897063949872E-11  8.56713688834761E-02
 cg2d: Sum(rhs),rhsMax =  -5.81605874572233E-11  8.57240772054508E-02
 cg2d: Sum(rhs),rhsMax =  -5.81023007484305E-11  8.57728471586514E-02
 cg2d: Sum(rhs),rhsMax =  -5.79974956949059E-11  8.58245716325667E-02
 cg2d: Sum(rhs),rhsMax =  -5.79544190415504E-11  8.58649246803699E-02
 cg2d: Sum(rhs),rhsMax =  -5.79302161796136E-11  8.59015286529154E-02
 cg2d: Sum(rhs),rhsMax =  -5.78895820169123E-11  8.59243392646851E-02
 cg2d: Sum(rhs),rhsMax =  -5.78944669982207E-11  8.59507347044694E-02
 cg2d: Sum(rhs),rhsMax =  -5.78166403641944E-11  8.59723493783926E-02
 cg2d: Sum(rhs),rhsMax =  -5.77879966101591E-11  8.59891707585577E-02
 cg2d: Sum(rhs),rhsMax =  -5.78419534491559E-11  8.60013709792675E-02
 cg2d: Sum(rhs),rhsMax =  -5.78809222773202E-11  8.60087595477407E-02
 cg2d: Sum(rhs),rhsMax =  -5.79126746558245E-11  8.60113756699175E-02
 cg2d: Sum(rhs),rhsMax =  -5.79430947666992E-11  8.60083925463229E-02
 cg2d: Sum(rhs),rhsMax =  -5.80075987244300E-11  8.59998194529430E-02
 cg2d: Sum(rhs),rhsMax =  -5.80503423108780E-11  8.59858356946466E-02
 cg2d: Sum(rhs),rhsMax =  -5.81443782010638E-11  8.59660981686932E-02
 cg2d: Sum(rhs),rhsMax =  -5.82175418983866E-11  8.59413479690019E-02
 cg2d: Sum(rhs),rhsMax =  -5.82337511545461E-11  8.59112091887854E-02
 cg2d: Sum(rhs),rhsMax =  -5.81980019731532E-11  8.60708405821111E-02
 cg2d: Sum(rhs),rhsMax =  -5.83135761900166E-11  8.59846257173470E-02
 cg2d: Sum(rhs),rhsMax =  -5.83626480477051E-11  8.59257161351526E-02
 cg2d: Sum(rhs),rhsMax =  -5.84353676558180E-11  8.58734548242198E-02
 cg2d: Sum(rhs),rhsMax =  -5.85340664827072E-11  8.58163355535572E-02
 cg2d: Sum(rhs),rhsMax =  -5.86013459979995E-11  8.57542230433781E-02
 cg2d: Sum(rhs),rhsMax =  -5.87150328357211E-11  8.56880933571787E-02
 cg2d: Sum(rhs),rhsMax =  -5.88223914022024E-11  8.56180247328030E-02
 cg2d: Sum(rhs),rhsMax =  -5.89713833321071E-11  8.55440502682871E-02
 cg2d: Sum(rhs),rhsMax =  -5.90884008389025E-11  8.54664024172157E-02
 cg2d: Sum(rhs),rhsMax =  -5.92175197766664E-11  8.53858387177283E-02
 cg2d: Sum(rhs),rhsMax =  -5.93607385468431E-11  8.53025921570674E-02
 cg2d: Sum(rhs),rhsMax =  -5.94925220198661E-11  8.52167879272828E-02
 cg2d: Sum(rhs),rhsMax =  -5.96553917375786E-11  8.51345673611106E-02
 cg2d: Sum(rhs),rhsMax =  -5.97559779436097E-11  8.50400252495042E-02
 cg2d: Sum(rhs),rhsMax =  -5.98660010453500E-11  8.49483252010676E-02
 cg2d: Sum(rhs),rhsMax =  -5.99932326039720E-11  8.48554140365863E-02
 cg2d: Sum(rhs),rhsMax =  -6.01172445158227E-11  8.47619123786600E-02
 cg2d: Sum(rhs),rhsMax =  -6.02593530629747E-11  8.46681868632825E-02
 cg2d: Sum(rhs),rhsMax =  -6.03772587481899E-11  8.45747237202793E-02
 cg2d: Sum(rhs),rhsMax =  -6.04934990988681E-11  8.44875766318965E-02
 cg2d: Sum(rhs),rhsMax =  -6.05991923308125E-11  8.43968571001326E-02
 cg2d: Sum(rhs),rhsMax =  -6.07049965850592E-11  8.43067247187878E-02
 cg2d: Sum(rhs),rhsMax =  -6.08604278085068E-11  8.42077971038904E-02
 cg2d: Sum(rhs),rhsMax =  -6.09529093864580E-11  8.41264983802503E-02
 cg2d: Sum(rhs),rhsMax =  -6.10891337515795E-11  8.40407664475327E-02
 cg2d: Sum(rhs),rhsMax =  -6.12372375030645E-11  8.39453895298768E-02
 cg2d: Sum(rhs),rhsMax =  -6.13826767192904E-11  8.38611277424084E-02
 cg2d: Sum(rhs),rhsMax =  -6.14963635570120E-11  8.37808367344817E-02
 cg2d: Sum(rhs),rhsMax =  -6.16189321789307E-11  8.37051979948182E-02
 cg2d: Sum(rhs),rhsMax =  -6.17310647044178E-11  8.36345473444794E-02
 cg2d: Sum(rhs),rhsMax =  -6.18732842738723E-11  8.35687268286872E-02
 cg2d: Sum(rhs),rhsMax =  -6.19894691133993E-11  8.35078518290287E-02
 cg2d: Sum(rhs),rhsMax =  -6.20877238510786E-11  8.34589060641285E-02
 cg2d: Sum(rhs),rhsMax =  -6.22183415899258E-11  8.34101667081340E-02
 cg2d: Sum(rhs),rhsMax =  -6.23327500726134E-11  8.33661240238688E-02
 cg2d: Sum(rhs),rhsMax =  -6.24912899205299E-11  8.32599009198768E-02
 cg2d: Sum(rhs),rhsMax =  -6.25901552808728E-11  8.32382131523730E-02
 cg2d: Sum(rhs),rhsMax =  -6.26847462825708E-11  8.32238687242872E-02
 cg2d: Sum(rhs),rhsMax =  -6.28054830364988E-11  8.32030594700515E-02
 cg2d: Sum(rhs),rhsMax =  -6.29047369749003E-11  8.31869804252321E-02
 cg2d: Sum(rhs),rhsMax =  -6.29920560157871E-11  8.31761516710149E-02
 cg2d: Sum(rhs),rhsMax =  -6.30904772869201E-11  8.31699237905410E-02
 cg2d: Sum(rhs),rhsMax =  -6.31847352217108E-11  8.31683689664304E-02
 cg2d: Sum(rhs),rhsMax =  -6.32863206284640E-11  8.31713245542948E-02
 cg2d: Sum(rhs),rhsMax =  -6.33802454963472E-11  8.31787885674543E-02
 cg2d: Sum(rhs),rhsMax =  -6.34481356343031E-11  8.31898029893281E-02
 cg2d: Sum(rhs),rhsMax =  -6.35192454190303E-11  8.32055026453762E-02
 cg2d: Sum(rhs),rhsMax =  -6.36653785246466E-11  8.31474529180014E-02
 cg2d: Sum(rhs),rhsMax =  -6.37074559772799E-11  8.32056870296870E-02
 cg2d: Sum(rhs),rhsMax =  -6.37720709573131E-11  8.32432968302617E-02
 cg2d: Sum(rhs),rhsMax =  -6.38551711507063E-11  8.32798718497643E-02
 cg2d: Sum(rhs),rhsMax =  -6.39533426216587E-11  8.33216987311640E-02
 cg2d: Sum(rhs),rhsMax =  -6.40155151110378E-11  8.33680217140449E-02
 cg2d: Sum(rhs),rhsMax =  -6.40730940526524E-11  8.34174714561472E-02
 cg2d: Sum(rhs),rhsMax =  -6.41496439302003E-11  8.34707211247046E-02
 cg2d: Sum(rhs),rhsMax =  -6.42240566284258E-11  8.35272781425828E-02
 cg2d: Sum(rhs),rhsMax =  -6.42855907395656E-11  8.35862849225497E-02
 cg2d: Sum(rhs),rhsMax =  -6.43387149112939E-11  8.36485103400383E-02
 cg2d: Sum(rhs),rhsMax =  -6.43871692074249E-11  8.37135552334556E-02
 cg2d: Sum(rhs),rhsMax =  -6.44218255130280E-11  8.37806467893464E-02
 cg2d: Sum(rhs),rhsMax =  -6.44588826759218E-11  8.38508233328383E-02
 cg2d: Sum(rhs),rhsMax =  -6.45173567348500E-11  8.39226617130594E-02
 cg2d: Sum(rhs),rhsMax =  -6.45581088587477E-11  8.39970133874683E-02
 cg2d: Sum(rhs),rhsMax =  -6.45893477591031E-11  8.40735410443177E-02
 cg2d: Sum(rhs),rhsMax =  -6.46629139122723E-11  8.41516951081071E-02
 cg2d: Sum(rhs),rhsMax =  -6.47061432212936E-11  8.42317835946986E-02
 cg2d: Sum(rhs),rhsMax =  -6.47504133644006E-11  8.43143166127026E-02
 cg2d: Sum(rhs),rhsMax =  -6.47883413584793E-11  8.43989798199335E-02
 cg2d: Sum(rhs),rhsMax =  -6.48182896245686E-11  8.44852558985549E-02
 cg2d: Sum(rhs),rhsMax =  -6.48582298978795E-11  8.45734565617796E-02
 cg2d: Sum(rhs),rhsMax =  -6.48808229364306E-11  8.46637379216672E-02
 cg2d: Sum(rhs),rhsMax =  -6.49234832561518E-11  8.47552979020808E-02
 cg2d: Sum(rhs),rhsMax =  -6.49603981717206E-11  8.48489414467763E-02
 cg2d: Sum(rhs),rhsMax =  -6.49831577437254E-11  8.49443690081536E-02
 cg2d: Sum(rhs),rhsMax =  -6.50245968181196E-11  8.50409835115166E-02
 cg2d: Sum(rhs),rhsMax =  -6.50484666131490E-11  8.51391015625777E-02
 cg2d: Sum(rhs),rhsMax =  -6.50982046046522E-11  8.52385242299313E-02
 cg2d: Sum(rhs),rhsMax =  -6.51321774292057E-11  8.53392791111732E-02
 cg2d: Sum(rhs),rhsMax =  -6.51216858216230E-11  8.54412964853537E-02
 cg2d: Sum(rhs),rhsMax =  -6.51422249475786E-11  8.55443924479543E-02
 cg2d: Sum(rhs),rhsMax =  -6.51845799559680E-11  8.56484677466983E-02
 cg2d: Sum(rhs),rhsMax =  -6.51875775581345E-11  8.57534116416928E-02
 cg2d: Sum(rhs),rhsMax =  -6.51979581434148E-11  8.58597327462614E-02
 cg2d: Sum(rhs),rhsMax =  -6.51959597419705E-11  8.59676369401578E-02
 cg2d: Sum(rhs),rhsMax =  -6.52074505502753E-11  8.60764627406417E-02
 cg2d: Sum(rhs),rhsMax =  -6.52417564417362E-11  8.61862197287242E-02
 cg2d: Sum(rhs),rhsMax =  -6.52628506792041E-11  8.62959426333472E-02
 cg2d: Sum(rhs),rhsMax =  -6.52755627328361E-11  8.64057431652552E-02
 cg2d: Sum(rhs),rhsMax =  -6.52924936339616E-11  8.65152971281100E-02
 cg2d: Sum(rhs),rhsMax =  -6.53060383548620E-11  8.66243867700826E-02
 cg2d: Sum(rhs),rhsMax =  -6.52896070540976E-11  8.67330142450377E-02
 cg2d: Sum(rhs),rhsMax =  -6.53070930667354E-11  8.68405367227519E-02
 cg2d: Sum(rhs),rhsMax =  -6.52791154465149E-11  8.69468082000462E-02
 cg2d: Sum(rhs),rhsMax =  -6.52976561710261E-11  8.70514297908383E-02
 cg2d: Sum(rhs),rhsMax =  -6.52845555393355E-11  8.71542306211695E-02
 cg2d: Sum(rhs),rhsMax =  -6.53056497768034E-11  8.72549233402321E-02
 cg2d: Sum(rhs),rhsMax =  -6.52976561710261E-11  8.73531861454461E-02
 cg2d: Sum(rhs),rhsMax =  -6.53240794790122E-11  8.74490371036893E-02
 cg2d: Sum(rhs),rhsMax =  -6.53571641251460E-11  8.75420338301136E-02
 cg2d: Sum(rhs),rhsMax =  -6.53685994222997E-11  8.76319172641892E-02
 cg2d: Sum(rhs),rhsMax =  -6.53725962251883E-11  8.77183534793040E-02
 cg2d: Sum(rhs),rhsMax =  -6.53974652209399E-11  8.78011185282816E-02
 cg2d: Sum(rhs),rhsMax =  -6.53612719503371E-11  8.78799986180913E-02
 cg2d: Sum(rhs),rhsMax =  -6.53759268942622E-11  8.79547838969105E-02
 cg2d: Sum(rhs),rhsMax =  -6.53801457417558E-11  8.80252418943031E-02
 cg2d: Sum(rhs),rhsMax =  -6.53742615597253E-11  8.80911804003869E-02
 cg2d: Sum(rhs),rhsMax =  -6.53858078791814E-11  8.81524442197770E-02
 cg2d: Sum(rhs),rhsMax =  -6.54084564288837E-11  8.82088903834316E-02
 cg2d: Sum(rhs),rhsMax =  -6.53672671546701E-11  8.82603083265443E-02
 cg2d: Sum(rhs),rhsMax =  -6.54157839008462E-11  8.83075481917054E-02
 cg2d: Sum(rhs),rhsMax =  -6.54387655174560E-11  8.83506981640756E-02
 cg2d: Sum(rhs),rhsMax =  -6.54538645505909E-11  8.83895932734811E-02
 cg2d: Sum(rhs),rhsMax =  -6.54843956837681E-11  8.84242570571549E-02
 cg2d: Sum(rhs),rhsMax =  -6.54842846614656E-11  8.84547577708144E-02
 cg2d: Sum(rhs),rhsMax =  -6.55010490291374E-11  8.84804392151686E-02
 cg2d: Sum(rhs),rhsMax =  -6.55812071315154E-11  8.85017817495450E-02
 cg2d: Sum(rhs),rhsMax =  -6.53938014849587E-11  8.89169464991612E-02
 cg2d: Sum(rhs),rhsMax =  -6.49365006211156E-11  8.96785501720336E-02
 cg2d: Sum(rhs),rhsMax =  -6.44750919320813E-11  9.04057362135820E-02
 cg2d: Sum(rhs),rhsMax =  -6.40542063834459E-11  9.10981809474519E-02
 cg2d: Sum(rhs),rhsMax =  -6.36954933241896E-11  9.17555790254653E-02
 cg2d: Sum(rhs),rhsMax =  -6.33392227555873E-11  9.23776436701386E-02
 cg2d: Sum(rhs),rhsMax =  -6.30165919446313E-11  9.29641068090380E-02
 cg2d: Sum(rhs),rhsMax =  -6.26970697581442E-11  9.35147192088178E-02
 cg2d: Sum(rhs),rhsMax =  -6.24151841321918E-11  9.40292506659035E-02
 cg2d: Sum(rhs),rhsMax =  -6.21920293042422E-11  9.45074900368066E-02
 cg2d: Sum(rhs),rhsMax =  -6.19528872647379E-11  9.49492452269617E-02
 cg2d: Sum(rhs),rhsMax =  -6.17317308382326E-11  9.53543431559824E-02
 cg2d: Sum(rhs),rhsMax =  -6.15586470686935E-11  9.57226296800996E-02
 cg2d: Sum(rhs),rhsMax =  -6.14467365878113E-11  9.60539694591928E-02
 cg2d: Sum(rhs),rhsMax =  -6.12476735994960E-11  9.63482459009893E-02
 cg2d: Sum(rhs),rhsMax =  -6.11576345121989E-11  9.66053610458914E-02
 cg2d: Sum(rhs),rhsMax =  -6.10650419119452E-11  9.68252354217918E-02
 cg2d: Sum(rhs),rhsMax =  -6.10216321916823E-11  9.70078079117986E-02
 cg2d: Sum(rhs),rhsMax =  -6.09143846475035E-11  9.71530356536412E-02
 cg2d: Sum(rhs),rhsMax =  -6.08684214142841E-11  9.72608939806348E-02
 cg2d: Sum(rhs),rhsMax =  -6.08787464884131E-11  9.73313764715117E-02
 cg2d: Sum(rhs),rhsMax =  -6.08617600761363E-11  9.73644949309298E-02
 cg2d: Sum(rhs),rhsMax =  -6.08646466560003E-11  9.73602793916640E-02
 cg2d: Sum(rhs),rhsMax =  -6.07565109334018E-11  9.73187781664847E-02
 cg2d: Sum(rhs),rhsMax =  -6.07883743342086E-11  9.72400576933158E-02
 cg2d: Sum(rhs),rhsMax =  -6.08522121581245E-11  9.71242028111124E-02
 cg2d: Sum(rhs),rhsMax =  -6.08969541460169E-11  9.69713169293426E-02
 cg2d: Sum(rhs),rhsMax =  -6.09647887728215E-11  9.67815220677383E-02
 cg2d: Sum(rhs),rhsMax =  -6.10191897010282E-11  9.65549587450370E-02
 cg2d: Sum(rhs),rhsMax =  -6.11457551258354E-11  9.62917858003909E-02
 cg2d: Sum(rhs),rhsMax =  -6.12973005686968E-11  9.59921799032941E-02
 cg2d: Sum(rhs),rhsMax =  -6.15083539656780E-11  9.56563355313127E-02
 cg2d: Sum(rhs),rhsMax =  -6.17041973072219E-11  9.52844647974081E-02
 cg2d: Sum(rhs),rhsMax =  -6.19312379157577E-11  9.48767973727323E-02
 cg2d: Sum(rhs),rhsMax =  -6.21647178178364E-11  9.44335796805867E-02
 cg2d: Sum(rhs),rhsMax =  -6.24454932207641E-11  9.39550742004108E-02
 cg2d: Sum(rhs),rhsMax =  -6.27037310962919E-11  9.34415588819425E-02
 cg2d: Sum(rhs),rhsMax =  -6.30411278734755E-11  9.28933266778093E-02
 cg2d: Sum(rhs),rhsMax =  -6.33729735355359E-11  9.23106849693138E-02
 cg2d: Sum(rhs),rhsMax =  -6.37420116689214E-11  9.16939551996119E-02
 cg2d: Sum(rhs),rhsMax =  -6.40879571633945E-11  9.10434726454426E-02
 cg2d: Sum(rhs),rhsMax =  -6.45004050170428E-11  9.03595857436848E-02
 cg2d: Sum(rhs),rhsMax =  -6.49746922931627E-11  8.96426556606179E-02
 cg2d: Sum(rhs),rhsMax =  -6.54442056102766E-11  8.88930560650961E-02
 cg2d: Sum(rhs),rhsMax =  -6.59123866597611E-11  8.81111728812047E-02
 cg2d: Sum(rhs),rhsMax =  -6.64737154210115E-11  8.72974041874745E-02
 cg2d: Sum(rhs),rhsMax =  -6.65660859766604E-11  8.71244890046170E-02
 cg2d: Sum(rhs),rhsMax =  -6.64925892124302E-11  8.71009736454147E-02
 cg2d: Sum(rhs),rhsMax =  -6.64918120563129E-11  8.70783581184928E-02
 cg2d: Sum(rhs),rhsMax =  -6.64399646410629E-11  8.70565600069707E-02
 cg2d: Sum(rhs),rhsMax =  -6.64280852546995E-11  8.70351688805063E-02
 cg2d: Sum(rhs),rhsMax =  -6.64002186567814E-11  8.70145529271690E-02
 cg2d: Sum(rhs),rhsMax =  -6.63378241227974E-11  8.69943903292889E-02
 cg2d: Sum(rhs),rhsMax =  -6.63344934537236E-11  8.69745133084141E-02
 cg2d: Sum(rhs),rhsMax =  -6.62997434730528E-11  8.69548450952649E-02
 cg2d: Sum(rhs),rhsMax =  -6.62545573959505E-11  8.69352618795356E-02
 cg2d: Sum(rhs),rhsMax =  -6.62316868016433E-11  8.69159238594082E-02
 cg2d: Sum(rhs),rhsMax =  -6.61565247028761E-11  8.68962942108106E-02
 cg2d: Sum(rhs),rhsMax =  -6.61194432538537E-11  8.68763355305035E-02
 cg2d: Sum(rhs),rhsMax =  -6.60770327343130E-11  8.68560053634201E-02
 cg2d: Sum(rhs),rhsMax =  -6.60151933118414E-11  8.68352557273102E-02
 cg2d: Sum(rhs),rhsMax =  -6.60175247801931E-11  8.68134956733340E-02
 cg2d: Sum(rhs),rhsMax =  -6.59289289828280E-11  8.67917096330360E-02
 cg2d: Sum(rhs),rhsMax =  -6.58784138352075E-11  8.67690090509986E-02
 cg2d: Sum(rhs),rhsMax =  -6.58773036121829E-11  8.67453756764663E-02
 cg2d: Sum(rhs),rhsMax =  -6.58455512336786E-11  8.67207611225185E-02
 cg2d: Sum(rhs),rhsMax =  -6.57659482428130E-11  8.66951461616297E-02
 cg2d: Sum(rhs),rhsMax =  -6.57212617660718E-11  8.66686027414900E-02
 cg2d: Sum(rhs),rhsMax =  -6.56756871109110E-11  8.66407516685289E-02
 cg2d: Sum(rhs),rhsMax =  -6.56004139898414E-11  8.66117973847707E-02
 cg2d: Sum(rhs),rhsMax =  -6.55563381357638E-11  8.65816498243660E-02
 cg2d: Sum(rhs),rhsMax =  -6.55113185921152E-11  8.65502153231474E-02
 cg2d: Sum(rhs),rhsMax =  -6.54432064095545E-11  8.65174136537742E-02
 cg2d: Sum(rhs),rhsMax =  -6.54020171353409E-11  8.64830457647609E-02
 cg2d: Sum(rhs),rhsMax =  -6.53548326567943E-11  8.64480915215387E-02
 cg2d: Sum(rhs),rhsMax =  -6.53088694235748E-11  8.64113624116684E-02
 cg2d: Sum(rhs),rhsMax =  -6.52777831788853E-11  8.63732808717091E-02
 cg2d: Sum(rhs),rhsMax =  -6.52133902434571E-11  8.63338469352253E-02
 cg2d: Sum(rhs),rhsMax =  -6.51718679023361E-11  8.62930140968289E-02
 cg2d: Sum(rhs),rhsMax =  -6.51301790277614E-11  8.62509272734505E-02
 cg2d: Sum(rhs),rhsMax =  -6.50609566221760E-11  8.62074218105392E-02
 cg2d: Sum(rhs),rhsMax =  -6.50329234908043E-11  8.61626627550753E-02
 cg2d: Sum(rhs),rhsMax =  -6.49842402111744E-11  8.61116286893577E-02
 cg2d: Sum(rhs),rhsMax =  -6.49086895343487E-11  8.60660530358241E-02
 cg2d: Sum(rhs),rhsMax =  -6.48613662779240E-11  8.60184128399552E-02
 cg2d: Sum(rhs),rhsMax =  -6.48160969340950E-11  8.59698587258433E-02
 cg2d: Sum(rhs),rhsMax =  -6.47663866981674E-11  8.59202101712719E-02
 cg2d: Sum(rhs),rhsMax =  -6.47146780607954E-11  8.58699340375935E-02
 cg2d: Sum(rhs),rhsMax =  -6.46681042049124E-11  8.58186525506931E-02
 cg2d: Sum(rhs),rhsMax =  -6.46422637640143E-11  8.57660524971852E-02
 cg2d: Sum(rhs),rhsMax =  -6.46025455353083E-11  8.57130819644372E-02
 cg2d: Sum(rhs),rhsMax =  -6.45502956642119E-11  8.56590302064883E-02
 cg2d: Sum(rhs),rhsMax =  -6.45268144472411E-11  8.56043912100881E-02
 cg2d: Sum(rhs),rhsMax =  -6.44888586975867E-11  8.55485239947242E-02
 cg2d: Sum(rhs),rhsMax =  -6.44568010077506E-11  8.54915338240007E-02
 cg2d: Sum(rhs),rhsMax =  -6.44235220725875E-11  8.54335983361153E-02
 cg2d: Sum(rhs),rhsMax =  -6.43758310547859E-11  8.53745682598684E-02
 cg2d: Sum(rhs),rhsMax =  -6.43251563126057E-11  8.53144962121448E-02
 cg2d: Sum(rhs),rhsMax =  -6.42948159990109E-11  8.52533441176926E-02
 cg2d: Sum(rhs),rhsMax =  -6.42528790589791E-11  8.51910952476417E-02
 cg2d: Sum(rhs),rhsMax =  -6.42281089424657E-11  8.51281080566005E-02
 cg2d: Sum(rhs),rhsMax =  -6.41852612726090E-11  8.50634373244823E-02
 cg2d: Sum(rhs),rhsMax =  -6.41404845902471E-11  8.49969547655384E-02
 cg2d: Sum(rhs),rhsMax =  -6.41151021163466E-11  8.49304040047254E-02
 cg2d: Sum(rhs),rhsMax =  -6.40812264363078E-11  8.48623342557961E-02
 cg2d: Sum(rhs),rhsMax =  -6.40577590971247E-11  8.47930218735360E-02
 cg2d: Sum(rhs),rhsMax =  -6.40268116303133E-11  8.47224723879413E-02
 cg2d: Sum(rhs),rhsMax =  -6.40109909522124E-11  8.46506448943717E-02
 cg2d: Sum(rhs),rhsMax =  -6.39809871749719E-11  8.45777854583040E-02
 cg2d: Sum(rhs),rhsMax =  -6.39534536439612E-11  8.45032421438170E-02
 cg2d: Sum(rhs),rhsMax =  -6.39485964182285E-11  8.44275454289466E-02
 cg2d: Sum(rhs),rhsMax =  -6.39270858471264E-11  8.43503944505657E-02
 cg2d: Sum(rhs),rhsMax =  -6.39041319860922E-11  8.42716652490813E-02
 cg2d: Sum(rhs),rhsMax =  -6.38989139378765E-11  8.41915592858887E-02
 cg2d: Sum(rhs),rhsMax =  -6.38700203836606E-11  8.41101828552363E-02
 cg2d: Sum(rhs),rhsMax =  -6.38642472239326E-11  8.40279531616007E-02
 cg2d: Sum(rhs),rhsMax =  -6.38314401335549E-11  8.39449692095924E-02
 cg2d: Sum(rhs),rhsMax =  -6.38294417321106E-11  8.38613939619719E-02
 cg2d: Sum(rhs),rhsMax =  -6.38212260817284E-11  8.37772365501590E-02
 cg2d: Sum(rhs),rhsMax =  -6.38201158587037E-11  8.36892587002804E-02
 cg2d: Sum(rhs),rhsMax =  -6.38192831914353E-11  8.36012576131314E-02
 cg2d: Sum(rhs),rhsMax =  -6.38429864530110E-11  8.35123266001612E-02
 cg2d: Sum(rhs),rhsMax =  -6.38395447616347E-11  8.34223855668443E-02
 cg2d: Sum(rhs),rhsMax =  -6.38398778285421E-11  8.33319099341096E-02
 cg2d: Sum(rhs),rhsMax =  -6.38442632094893E-11  8.32402940842146E-02
 cg2d: Sum(rhs),rhsMax =  -6.38266106633978E-11  8.31482334368600E-02
 cg2d: Sum(rhs),rhsMax =  -6.38668007368892E-11  8.30557542677590E-02
 cg2d: Sum(rhs),rhsMax =  -6.38722408297099E-11  8.29629755593949E-02
 cg2d: Sum(rhs),rhsMax =  -6.38829544818975E-11  8.28700464222617E-02
 cg2d: Sum(rhs),rhsMax =  -6.38836761268635E-11  8.27771295733159E-02
 cg2d: Sum(rhs),rhsMax =  -6.39057140539023E-11  8.26843798151020E-02
 cg2d: Sum(rhs),rhsMax =  -6.39245323341697E-11  8.25919085809736E-02
 cg2d: Sum(rhs),rhsMax =  -6.39410746572366E-11  8.24998427182548E-02
 cg2d: Sum(rhs),rhsMax =  -6.39484021291992E-11  8.24085116082798E-02
 cg2d: Sum(rhs),rhsMax =  -6.39721609019261E-11  8.23177788731766E-02
 cg2d: Sum(rhs),rhsMax =  -6.39922559386719E-11  8.22278408723988E-02
 cg2d: Sum(rhs),rhsMax =  -6.40058006595723E-11  8.21387990405634E-02
 cg2d: Sum(rhs),rhsMax =  -6.40347774805150E-11  8.20507982751482E-02
 cg2d: Sum(rhs),rhsMax =  -6.40509867366745E-11  8.19639261420961E-02
 cg2d: Sum(rhs),rhsMax =  -6.40609787438962E-11  8.18804146301137E-02
 cg2d: Sum(rhs),rhsMax =  -6.40639763460626E-11  8.17957001320699E-02
 cg2d: Sum(rhs),rhsMax =  -6.40862918288576E-11  8.17121490712521E-02
 cg2d: Sum(rhs),rhsMax =  -6.40937303231226E-11  8.16299238182251E-02
 cg2d: Sum(rhs),rhsMax =  -6.41134922929609E-11  8.15493460672558E-02
 cg2d: Sum(rhs),rhsMax =  -6.41079411778378E-11  8.14706383250939E-02
 cg2d: Sum(rhs),rhsMax =  -6.41222630548555E-11  8.13938809923782E-02
 cg2d: Sum(rhs),rhsMax =  -6.41502406750760E-11  8.13306653191079E-02
 cg2d: Sum(rhs),rhsMax =  -6.40869579626724E-11  8.13221616183005E-02
 cg2d: Sum(rhs),rhsMax =  -6.40177910682382E-11  8.13093289670690E-02
 cg2d: Sum(rhs),rhsMax =  -6.39408526126317E-11  8.12921363779901E-02
 cg2d: Sum(rhs),rhsMax =  -6.39162056614850E-11  8.12705171947428E-02
 cg2d: Sum(rhs),rhsMax =  -6.38490371684952E-11  8.12446475773738E-02
 cg2d: Sum(rhs),rhsMax =  -6.38257224849781E-11  8.12145789734424E-02
 cg2d: Sum(rhs),rhsMax =  -6.37948582848935E-11  8.11803083666184E-02
 cg2d: Sum(rhs),rhsMax =  -6.37919717050295E-11  8.11419628732157E-02
 cg2d: Sum(rhs),rhsMax =  -6.37804253855734E-11  8.10996806656004E-02
 cg2d: Sum(rhs),rhsMax =  -6.37694341776296E-11  8.10538128136237E-02
 cg2d: Sum(rhs),rhsMax =  -6.37523367430504E-11  8.10048560314418E-02
 cg2d: Sum(rhs),rhsMax =  -6.37756514265675E-11  8.09528957557527E-02
 cg2d: Sum(rhs),rhsMax =  -6.37718766682838E-11  8.08980009271155E-02
 cg2d: Sum(rhs),rhsMax =  -6.37937480618689E-11  8.08462405953491E-02
 cg2d: Sum(rhs),rhsMax =  -6.37957464633132E-11  8.07864120913796E-02
 cg2d: Sum(rhs),rhsMax =  -6.38397112950884E-11  8.07232065177924E-02
 cg2d: Sum(rhs),rhsMax =  -6.39087671672200E-11  8.06580574722820E-02
 cg2d: Sum(rhs),rhsMax =  -6.38866737290300E-11  8.05909358585975E-02
 cg2d: Sum(rhs),rhsMax =  -6.38856745283078E-11  8.05185266475651E-02
 cg2d: Sum(rhs),rhsMax =  -6.38892272419866E-11  8.04453526242654E-02
 cg2d: Sum(rhs),rhsMax =  -6.39128749924112E-11  8.03708178327369E-02
 cg2d: Sum(rhs),rhsMax =  -6.39653885414759E-11  8.02952196324002E-02
 cg2d: Sum(rhs),rhsMax =  -6.38988861823009E-11  8.02752587530542E-02
 cg2d: Sum(rhs),rhsMax =  -6.37049302198989E-11  8.02582039133508E-02
 cg2d: Sum(rhs),rhsMax =  -6.37072616882506E-11  8.02430589983023E-02
 cg2d: Sum(rhs),rhsMax =  -6.37183639184968E-11  8.02295737739602E-02
 cg2d: Sum(rhs),rhsMax =  -6.37754293819626E-11  8.02176370873016E-02
 cg2d: Sum(rhs),rhsMax =  -6.38115116302629E-11  8.02070818919858E-02
 cg2d: Sum(rhs),rhsMax =  -6.38742392311542E-11  8.01978880765253E-02
 cg2d: Sum(rhs),rhsMax =  -6.39148733938555E-11  8.01902824726834E-02
 cg2d: Sum(rhs),rhsMax =  -6.39756025933025E-11  8.01837675450502E-02
 cg2d: Sum(rhs),rhsMax =  -6.39907016264374E-11  8.01784612526680E-02
 cg2d: Sum(rhs),rhsMax =  -6.40973940591039E-11  8.01743784256819E-02
 cg2d: Sum(rhs),rhsMax =  -6.41322550620771E-11  8.01711140065038E-02
 cg2d: Sum(rhs),rhsMax =  -6.42261799299604E-11  8.01688471766510E-02
 cg2d: Sum(rhs),rhsMax =  -6.43027853186595E-11  8.01673823849885E-02
 cg2d: Sum(rhs),rhsMax =  -6.43726183469084E-11  8.01666788552504E-02
 cg2d: Sum(rhs),rhsMax =  -6.44519992931691E-11  8.01667239108244E-02
 cg2d: Sum(rhs),rhsMax =  -6.45199449422762E-11  8.01674002358259E-02
 cg2d: Sum(rhs),rhsMax =  -6.46007691784689E-11  8.01684799015021E-02
 cg2d: Sum(rhs),rhsMax =  -6.46781517232853E-11  8.01700864981203E-02
 cg2d: Sum(rhs),rhsMax =  -6.47852882451616E-11  8.01607190543027E-02
 cg2d: Sum(rhs),rhsMax =  -6.48944231684823E-11  8.01624544707361E-02
 cg2d: Sum(rhs),rhsMax =  -6.49973408428650E-11  8.01649075458914E-02
 cg2d: Sum(rhs),rhsMax =  -6.50841602833907E-11  8.01688502659965E-02
 cg2d: Sum(rhs),rhsMax =  -6.51090292791423E-11  8.01747960284760E-02
 cg2d: Sum(rhs),rhsMax =  -6.51586562483430E-11  8.01826450143508E-02
 cg2d: Sum(rhs),rhsMax =  -6.52046194815625E-11  8.01921543776450E-02
 cg2d: Sum(rhs),rhsMax =  -6.52524700939239E-11  8.02032147343009E-02
 cg2d: Sum(rhs),rhsMax =  -6.53124221372536E-11  8.02157108736494E-02
 cg2d: Sum(rhs),rhsMax =  -6.53331833078141E-11  8.02295575792346E-02
 cg2d: Sum(rhs),rhsMax =  -6.53938014849587E-11  8.02445845607091E-02
 cg2d: Sum(rhs),rhsMax =  -6.54385434728511E-11  8.02605937611643E-02
 cg2d: Sum(rhs),rhsMax =  -6.54881704420518E-11  8.02774283556903E-02
 cg2d: Sum(rhs),rhsMax =  -6.55409060357215E-11  8.02949130151417E-02
 cg2d: Sum(rhs),rhsMax =  -6.55991927445143E-11  8.03128570360818E-02
 cg2d: Sum(rhs),rhsMax =  -6.56616983008007E-11  8.03311383899914E-02
 cg2d: Sum(rhs),rhsMax =  -6.57227605671551E-11  8.03495489533244E-02
 cg2d: Sum(rhs),rhsMax =  -6.57336407527964E-11  8.04264625116259E-02
 cg2d: Sum(rhs),rhsMax =  -6.58103571637980E-11  8.04432371875833E-02
 cg2d: Sum(rhs),rhsMax =  -6.58852972179602E-11  8.04579439230727E-02
 cg2d: Sum(rhs),rhsMax =  -6.59481358411540E-11  8.04688247690381E-02
 cg2d: Sum(rhs),rhsMax =  -6.60446697331452E-11  8.04741225793432E-02
 cg2d: Sum(rhs),rhsMax =  -6.61297128168314E-11  8.04525039598604E-02
 cg2d: Sum(rhs),rhsMax =  -6.62239707516221E-11  8.04500239144565E-02
 cg2d: Sum(rhs),rhsMax =  -6.63442079051890E-11  8.04452958253802E-02
 cg2d: Sum(rhs),rhsMax =  -6.64273636097334E-11  8.04395325260175E-02
 cg2d: Sum(rhs),rhsMax =  -6.65322241744093E-11  8.04348478080083E-02
 cg2d: Sum(rhs),rhsMax =  -6.66219301947990E-11  8.04306391671170E-02
 cg2d: Sum(rhs),rhsMax =  -6.67327859638078E-11  8.04267935537424E-02
 cg2d: Sum(rhs),rhsMax =  -6.68231581180123E-11  8.04689120346954E-02
 cg2d: Sum(rhs),rhsMax =  -6.69338473535674E-11  8.04651345224417E-02
 cg2d: Sum(rhs),rhsMax =  -6.70214439502104E-11  8.04595435575286E-02
 cg2d: Sum(rhs),rhsMax =  -6.71193101098311E-11  8.04510815351009E-02
 cg2d: Sum(rhs),rhsMax =  -6.72001898571750E-11  8.04647072128854E-02
 cg2d: Sum(rhs),rhsMax =  -6.73354705327256E-11  8.04318072715948E-02
 cg2d: Sum(rhs),rhsMax =  -6.74710287640323E-11  8.04056299205695E-02
 cg2d: Sum(rhs),rhsMax =  -6.75861033805347E-11  8.03676626577928E-02
 cg2d: Sum(rhs),rhsMax =  -6.77070621790676E-11  8.03447747935928E-02
 cg2d: Sum(rhs),rhsMax =  -6.78320177804892E-11  8.03214093200877E-02
 cg2d: Sum(rhs),rhsMax =  -6.79317990748274E-11  8.03007148301989E-02
 cg2d: Sum(rhs),rhsMax =  -6.80542289188679E-11  8.02817896040645E-02
 cg2d: Sum(rhs),rhsMax =  -6.81339984431872E-11  8.03015020603718E-02
 cg2d: Sum(rhs),rhsMax =  -6.82474077251527E-11  8.02652039757796E-02
 cg2d: Sum(rhs),rhsMax =  -6.83739731499600E-11  8.02399914893053E-02
 cg2d: Sum(rhs),rhsMax =  -6.84834966513392E-11  8.02170818941162E-02
 cg2d: Sum(rhs),rhsMax =  -6.86083412304583E-11  8.01937484776179E-02
 cg2d: Sum(rhs),rhsMax =  -6.86910944791563E-11  8.02260142417030E-02
 cg2d: Sum(rhs),rhsMax =  -6.87098433704847E-11  8.03314798393829E-02
 cg2d: Sum(rhs),rhsMax =  -6.87053608450228E-11  8.04363173063362E-02
 cg2d: Sum(rhs),rhsMax =  -6.87346984884485E-11  8.05405005263045E-02
 cg2d: Sum(rhs),rhsMax =  -6.87782331088016E-11  8.06440417065467E-02
 cg2d: Sum(rhs),rhsMax =  -6.88052739783451E-11  8.07456895172361E-02
 cg2d: Sum(rhs),rhsMax =  -6.88399337533951E-11  8.08474823642094E-02
 cg2d: Sum(rhs),rhsMax =  -6.88726202804912E-11  8.09493447506545E-02
 cg2d: Sum(rhs),rhsMax =  -6.88875206877881E-11  8.10511822893857E-02
 cg2d: Sum(rhs),rhsMax =  -6.89124174391154E-11  8.11530080280993E-02
 cg2d: Sum(rhs),rhsMax =  -6.89098014761136E-11  8.12548900451917E-02
 cg2d: Sum(rhs),rhsMax =  -6.89197102166084E-11  8.13569778226387E-02
 cg2d: Sum(rhs),rhsMax =  -6.89624607419503E-11  8.14588539271731E-02
 cg2d: Sum(rhs),rhsMax =  -6.89810708554006E-11  8.15607975301487E-02
 cg2d: Sum(rhs),rhsMax =  -6.90030810268638E-11  8.16618416487066E-02
 cg2d: Sum(rhs),rhsMax =  -6.90338342046459E-11  8.17404213738441E-02
 cg2d: Sum(rhs),rhsMax =  -6.90192070162965E-11  8.18457344728691E-02
 cg2d: Sum(rhs),rhsMax =  -6.90377477408077E-11  8.19491182243444E-02
 cg2d: Sum(rhs),rhsMax =  -6.90493495714151E-11  8.20574622788217E-02
 cg2d: Sum(rhs),rhsMax =  -6.90898727118139E-11  8.21582176857313E-02
 cg2d: Sum(rhs),rhsMax =  -6.91199042446300E-11  8.22604470427089E-02
 cg2d: Sum(rhs),rhsMax =  -6.91610935188436E-11  8.23622373778219E-02
 cg2d: Sum(rhs),rhsMax =  -6.91724177936948E-11  8.24646441865429E-02
 cg2d: Sum(rhs),rhsMax =  -6.91768864413689E-11  8.25761841481500E-02
 cg2d: Sum(rhs),rhsMax =  -6.91898205396058E-11  8.26773763748817E-02
 cg2d: Sum(rhs),rhsMax =  -6.92199075835731E-11  8.27813583207478E-02
 cg2d: Sum(rhs),rhsMax =  -6.92182977601874E-11  8.28955722511763E-02
 cg2d: Sum(rhs),rhsMax =  -6.91965929000560E-11  8.29990449718784E-02
 cg2d: Sum(rhs),rhsMax =  -6.92145785130549E-11  8.31059898814264E-02
 cg2d: Sum(rhs),rhsMax =  -6.92288448789213E-11  8.32233375721489E-02
 cg2d: Sum(rhs),rhsMax =  -6.92108592659224E-11  8.33309821652676E-02
 cg2d: Sum(rhs),rhsMax =  -6.92149115799623E-11  8.34493068852862E-02
 cg2d: Sum(rhs),rhsMax =  -6.92217394515637E-11  8.35523180103683E-02
 cg2d: Sum(rhs),rhsMax =  -6.91918744522013E-11  8.36758741038827E-02
 cg2d: Sum(rhs),rhsMax =  -6.91785517759058E-11  8.38084345655890E-02
 cg2d: Sum(rhs),rhsMax =  -6.91824930676432E-11  8.39244670582090E-02
 cg2d: Sum(rhs),rhsMax =  -6.91612878078729E-11  8.40427842320861E-02
 cg2d: Sum(rhs),rhsMax =  -6.91623980308975E-11  8.41632908099169E-02
 cg2d: Sum(rhs),rhsMax =  -6.91438573063863E-11  8.42849300215115E-02
 cg2d: Sum(rhs),rhsMax =  -6.91256496487824E-11  8.44069188051422E-02
 cg2d: Sum(rhs),rhsMax =  -6.91003365638210E-11  8.45300370956810E-02
 cg2d: Sum(rhs),rhsMax =  -6.90869583763742E-11  8.46549205852844E-02
 cg2d: Sum(rhs),rhsMax =  -6.90543178194503E-11  8.47809734116004E-02
 cg2d: Sum(rhs),rhsMax =  -6.90382195855932E-11  8.49084747214099E-02
 cg2d: Sum(rhs),rhsMax =  -6.90247858869952E-11  8.50374444412492E-02
 cg2d: Sum(rhs),rhsMax =  -6.90049128948544E-11  8.51680863970406E-02
 cg2d: Sum(rhs),rhsMax =  -6.89489576544133E-11  8.52993707727002E-02
(PID.TID 0000.0001)      cg2d_init_res =   7.20184286000200E-02
(PID.TID 0000.0001)      cg2d_iters(min,last) =      -1      38
(PID.TID 0000.0001)      cg2d_last_res =   5.78788586166536E-14
(PID.TID 0000.0001) // =======================================================
(PID.TID 0000.0001) // Begin MONITOR dynamic field statistics
(PID.TID 0000.0001) // =======================================================
(PID.TID 0000.0001) %MON time_tsnumber                =                  4800
(PID.TID 0000.0001) %MON time_secondsf                =   7.2000000000000E+04
(PID.TID 0000.0001) %MON dynstat_eta_max              =   1.1661729521008E-02
(PID.TID 0000.0001) %MON dynstat_eta_min              =  -1.8764806948336E-02
(PID.TID 0000.0001) %MON dynstat_eta_mean             =   1.2984156700976E-14
(PID.TID 0000.0001) %MON dynstat_eta_sd               =   9.0276115934742E-03
(PID.TID 0000.0001) %MON dynstat_eta_del2             =   7.7141627093251E-05
(PID.TID 0000.0001) %MON dynstat_uvel_max             =   1.2759060239175E+00
(PID.TID 0000.0001) %MON dynstat_uvel_min             =  -7.5936766904971E-01
(PID.TID 0000.0001) %MON dynstat_uvel_mean            =   4.5176403498377E-01
(PID.TID 0000.0001) %MON dynstat_uvel_sd              =   7.5708455106631E-02
(PID.TID 0000.0001) %MON dynstat_uvel_del2            =   9.4277659657355E-04
(PID.TID 0000.0001) %MON dynstat_vvel_max             =   0.0000000000000E+00
(PID.TID 0000.0001) %MON dynstat_vvel_min             =   0.0000000000000E+00
(PID.TID 0000.0001) %MON dynstat_vvel_mean            =   0.0000000000000E+00
(PID.TID 0000.0001) %MON dynstat_vvel_sd              =   0.0000000000000E+00
(PID.TID 0000.0001) %MON dynstat_vvel_del2            =   0.0000000000000E+00
(PID.TID 0000.0001) %MON dynstat_wvel_max             =   2.6439658811571E-02
(PID.TID 0000.0001) %MON dynstat_wvel_min             =  -7.8328086095388E-02
(PID.TID 0000.0001) %MON dynstat_wvel_mean            =   8.8279583719397E-21
(PID.TID 0000.0001) %MON dynstat_wvel_sd              =   3.8351642035654E-03
(PID.TID 0000.0001) %MON dynstat_wvel_del2            =   1.0695681929499E-04
(PID.TID 0000.0001) %MON dynstat_theta_max            =   1.5000000000009E+01
(PID.TID 0000.0001) %MON dynstat_theta_min            =   9.9999999999946E+00
(PID.TID 0000.0001) %MON dynstat_theta_mean           =   1.1002612347871E+01
(PID.TID 0000.0001) %MON dynstat_theta_sd             =   1.8836726182373E+00
(PID.TID 0000.0001) %MON dynstat_theta_del2           =   6.2906479190573E-04
(PID.TID 0000.0001) %MON dynstat_salt_max             =   3.5000000000000E+01
(PID.TID 0000.0001) %MON dynstat_salt_min             =   3.5000000000000E+01
(PID.TID 0000.0001) %MON dynstat_salt_mean            =   3.5000000000000E+01
(PID.TID 0000.0001) %MON dynstat_salt_sd              =   4.0500935938326E-13
(PID.TID 0000.0001) %MON dynstat_salt_del2            =   0.0000000000000E+00
(PID.TID 0000.0001) %MON dynstat_sst_max              =   1.5000000000009E+01
(PID.TID 0000.0001) %MON dynstat_sst_min              =   1.4999999996414E+01
(PID.TID 0000.0001) %MON dynstat_sst_mean             =   1.4999999999877E+01
(PID.TID 0000.0001) %MON dynstat_sst_sd               =   4.5730176057489E-10
(PID.TID 0000.0001) %MON dynstat_sst_del2             =   2.3488553223734E-11
(PID.TID 0000.0001) %MON dynstat_sss_max              =   3.5000000000000E+01
(PID.TID 0000.0001) %MON dynstat_sss_min              =   3.5000000000000E+01
(PID.TID 0000.0001) %MON dynstat_sss_mean             =   3.5000000000000E+01
(PID.TID 0000.0001) %MON dynstat_sss_sd               =   4.2632564145606E-14
(PID.TID 0000.0001) %MON dynstat_sss_del2             =   0.0000000000000E+00
(PID.TID 0000.0001) %MON forcing_qnet_max             =   0.0000000000000E+00
(PID.TID 0000.0001) %MON forcing_qnet_min             =   0.0000000000000E+00
(PID.TID 0000.0001) %MON forcing_qnet_mean            =   0.0000000000000E+00
(PID.TID 0000.0001) %MON forcing_qnet_sd              =   0.0000000000000E+00
(PID.TID 0000.0001) %MON forcing_qnet_del2            =   0.0000000000000E+00
(PID.TID 0000.0001) %MON forcing_qsw_max              =   0.0000000000000E+00
(PID.TID 0000.0001) %MON forcing_qsw_min              =   0.0000000000000E+00
(PID.TID 0000.0001) %MON forcing_qsw_mean             =   0.0000000000000E+00
(PID.TID 0000.0001) %MON forcing_qsw_sd               =   0.0000000000000E+00
(PID.TID 0000.0001) %MON forcing_qsw_del2             =   0.0000000000000E+00
(PID.TID 0000.0001) %MON forcing_empmr_max            =   0.0000000000000E+00
(PID.TID 0000.0001) %MON forcing_empmr_min            =   0.0000000000000E+00
(PID.TID 0000.0001) %MON forcing_empmr_mean           =   0.0000000000000E+00
(PID.TID 0000.0001) %MON forcing_empmr_sd             =   0.0000000000000E+00
(PID.TID 0000.0001) %MON forcing_empmr_del2           =   0.0000000000000E+00
(PID.TID 0000.0001) %MON forcing_fu_max               =   0.0000000000000E+00
(PID.TID 0000.0001) %MON forcing_fu_min               =   0.0000000000000E+00
(PID.TID 0000.0001) %MON forcing_fu_mean              =   0.0000000000000E+00
(PID.TID 0000.0001) %MON forcing_fu_sd                =   0.0000000000000E+00
(PID.TID 0000.0001) %MON forcing_fu_del2              =   0.0000000000000E+00
(PID.TID 0000.0001) %MON forcing_fv_max               =   0.0000000000000E+00
(PID.TID 0000.0001) %MON forcing_fv_min               =   0.0000000000000E+00
(PID.TID 0000.0001) %MON forcing_fv_mean              =   0.0000000000000E+00
(PID.TID 0000.0001) %MON forcing_fv_sd                =   0.0000000000000E+00
(PID.TID 0000.0001) %MON forcing_fv_del2              =   0.0000000000000E+00
(PID.TID 0000.0001) %MON advcfl_uvel_max              =   7.7399503480492E-02
(PID.TID 0000.0001) %MON advcfl_vvel_max              =   0.0000000000000E+00
(PID.TID 0000.0001) %MON advcfl_wvel_max              =   4.5393641535417E-01
(PID.TID 0000.0001) %MON advcfl_W_hf_max              =   4.5887497309174E-01
(PID.TID 0000.0001) %MON pe_b_mean                    =   2.0198977815122E-06
(PID.TID 0000.0001) %MON ke_max                       =   4.8810017879977E-01
(PID.TID 0000.0001) %MON ke_mean                      =   1.0493112716010E-01
(PID.TID 0000.0001) %MON ke_vol                       =   9.6656886657870E+10
(PID.TID 0000.0001) %MON vort_r_min                   =   0.0000000000000E+00
(PID.TID 0000.0001) %MON vort_r_max                   =   0.0000000000000E+00
(PID.TID 0000.0001) %MON vort_a_mean                  =   0.0000000000000E+00
(PID.TID 0000.0001) %MON vort_a_sd                    =   0.0000000000000E+00
(PID.TID 0000.0001) %MON vort_p_mean                  =   0.0000000000000E+00
(PID.TID 0000.0001) %MON vort_p_sd                    =   0.0000000000000E+00
(PID.TID 0000.0001) %MON surfExpan_theta_mean         =   6.6174590587800E-16
(PID.TID 0000.0001) %MON surfExpan_salt_mean          =   3.1657137550445E-20
(PID.TID 0000.0001) // =======================================================
(PID.TID 0000.0001) // End MONITOR dynamic field statistics
(PID.TID 0000.0001) // =======================================================
(PID.TID 0000.0001) // =======================================================
(PID.TID 0000.0001) // Begin OBCS MONITOR field statistics
(PID.TID 0000.0001) // =======================================================
(PID.TID 0000.0001) %MON obc_E_uVel_max               =   4.4822851314926E-01
(PID.TID 0000.0001) %MON obc_E_uVel_min               =   4.4822851314926E-01
(PID.TID 0000.0001) %MON obc_E_uVel_mean              =   4.4822851314926E-01
(PID.TID 0000.0001) %MON obc_E_uVel_sd                =  -1.9428902930940E-16
(PID.TID 0000.0001) %MON obc_E_uVel_Int               =   4.4822851314926E+05
(PID.TID 0000.0001) %MON obc_W_uVel_max               =   4.4822851314926E-01
(PID.TID 0000.0001) %MON obc_W_uVel_min               =   4.4822851314926E-01
(PID.TID 0000.0001) %MON obc_W_uVel_mean              =   4.4822851314926E-01
(PID.TID 0000.0001) %MON obc_W_uVel_sd                =  -1.9428902930940E-16
(PID.TID 0000.0001) %MON obc_W_uVel_Int               =   4.4822851314926E+05
(PID.TID 0000.0001) // =======================================================
(PID.TID 0000.0001) // End OBCS MONITOR field statistics
(PID.TID 0000.0001) // =======================================================
 cg2d: Sum(rhs),rhsMax =  -6.89044377111259E-11  8.54358509290757E-02
 cg2d: Sum(rhs),rhsMax =  -6.89085455363170E-11  8.55709655257967E-02
 cg2d: Sum(rhs),rhsMax =  -6.88500367829192E-11  8.57061826495698E-02
 cg2d: Sum(rhs),rhsMax =  -6.87934154086633E-11  8.58421171049253E-02
 cg2d: Sum(rhs),rhsMax =  -6.87401247034813E-11  8.59779739970137E-02
 cg2d: Sum(rhs),rhsMax =  -6.86987133846628E-11  8.61343865872852E-02
 cg2d: Sum(rhs),rhsMax =  -6.86423140550119E-11  8.62798439164221E-02
 cg2d: Sum(rhs),rhsMax =  -6.85997925131687E-11  8.63789418884810E-02
 cg2d: Sum(rhs),rhsMax =  -6.85395074029316E-11  8.65307035305535E-02
 cg2d: Sum(rhs),rhsMax =  -6.85453915849621E-11  8.65701061728019E-02
 cg2d: Sum(rhs),rhsMax =  -6.85218548568400E-11  8.66881703883327E-02
 cg2d: Sum(rhs),rhsMax =  -6.84625689473251E-11  8.68238960021805E-02
 cg2d: Sum(rhs),rhsMax =  -6.84619028135103E-11  8.69750165784178E-02
 cg2d: Sum(rhs),rhsMax =  -6.84420298213695E-11  8.71939721541838E-02
 cg2d: Sum(rhs),rhsMax =  -6.83888501384899E-11  8.73812467429117E-02
 cg2d: Sum(rhs),rhsMax =  -6.83630929643186E-11  8.75465332191827E-02
 cg2d: Sum(rhs),rhsMax =  -6.83425538383631E-11  8.77000212749470E-02
 cg2d: Sum(rhs),rhsMax =  -6.83216816455001E-11  8.78534747801246E-02
 cg2d: Sum(rhs),rhsMax =  -6.82874867763417E-11  8.80071126411108E-02
 cg2d: Sum(rhs),rhsMax =  -6.82782719252373E-11  8.81544979164077E-02
 cg2d: Sum(rhs),rhsMax =  -6.82278677999193E-11  8.82893334353111E-02
 cg2d: Sum(rhs),rhsMax =  -6.81937839530633E-11  8.84173082540001E-02
 cg2d: Sum(rhs),rhsMax =  -6.74630351582550E-11  8.95001301489924E-02
 cg2d: Sum(rhs),rhsMax =  -6.77213840560853E-11  8.92243321508574E-02
 cg2d: Sum(rhs),rhsMax =  -6.77367051338251E-11  8.92109368468256E-02
 cg2d: Sum(rhs),rhsMax =  -6.77617961741817E-11  8.92684992277571E-02
 cg2d: Sum(rhs),rhsMax =  -6.78354039607143E-11  8.93321735243575E-02
 cg2d: Sum(rhs),rhsMax =  -6.76178002478878E-11  8.96312165225156E-02
 cg2d: Sum(rhs),rhsMax =  -6.73801014983155E-11  9.00114151672934E-02
 cg2d: Sum(rhs),rhsMax =  -6.71601663171373E-11  9.03573467211735E-02
 cg2d: Sum(rhs),rhsMax =  -6.70250521750404E-11  9.06688641884722E-02
 cg2d: Sum(rhs),rhsMax =  -6.68691768623830E-11  9.09458429334936E-02
 cg2d: Sum(rhs),rhsMax =  -6.67600419390624E-11  9.11881804316411E-02
 cg2d: Sum(rhs),rhsMax =  -6.66435795437792E-11  9.13957959060158E-02
 cg2d: Sum(rhs),rhsMax =  -6.65723032255983E-11  9.15686298750542E-02
 cg2d: Sum(rhs),rhsMax =  -6.64985844167632E-11  9.17066436649204E-02
 cg2d: Sum(rhs),rhsMax =  -6.64467370015132E-11  9.18098189836875E-02
 cg2d: Sum(rhs),rhsMax =  -6.63777921516839E-11  9.18781573417984E-02
 cg2d: Sum(rhs),rhsMax =  -6.63319399407669E-11  9.19116795209732E-02
 cg2d: Sum(rhs),rhsMax =  -6.63537003120496E-11  9.19104250907244E-02
 cg2d: Sum(rhs),rhsMax =  -6.63009647183799E-11  9.18744519642892E-02
 cg2d: Sum(rhs),rhsMax =  -6.63260557587364E-11  9.18038357554658E-02
 cg2d: Sum(rhs),rhsMax =  -6.63614718732219E-11  9.16986696136441E-02
 cg2d: Sum(rhs),rhsMax =  -6.64229782287862E-11  9.15590639916004E-02
 cg2d: Sum(rhs),rhsMax =  -6.65175692304842E-11  9.13851463176242E-02
 cg2d: Sum(rhs),rhsMax =  -6.66698918294628E-11  9.11770606591645E-02
 cg2d: Sum(rhs),rhsMax =  -6.68725075314569E-11  9.09349674118526E-02
 cg2d: Sum(rhs),rhsMax =  -6.70659083823466E-11  9.06590428752876E-02
 cg2d: Sum(rhs),rhsMax =  -6.72688571512481E-11  9.03494790659815E-02
 cg2d: Sum(rhs),rhsMax =  -6.73102684700666E-11  9.02929552514358E-02
 cg2d: Sum(rhs),rhsMax =  -6.72815136937288E-11  9.03017638902691E-02
 cg2d: Sum(rhs),rhsMax =  -6.72568667425821E-11  9.03042991000088E-02
 cg2d: Sum(rhs),rhsMax =  -6.71988020783942E-11  9.03036193199204E-02
 cg2d: Sum(rhs),rhsMax =  -6.71830369114446E-11  9.02961365228582E-02
 cg2d: Sum(rhs),rhsMax =  -6.71641631200259E-11  9.02837957001788E-02
 cg2d: Sum(rhs),rhsMax =  -6.71358524328980E-11  9.02663604562236E-02
 cg2d: Sum(rhs),rhsMax =  -6.70773436795002E-11  9.02400325905961E-02
 cg2d: Sum(rhs),rhsMax =  -6.70318245354906E-11  9.02078633678548E-02
 cg2d: Sum(rhs),rhsMax =  -6.70360433829842E-11  9.01728158042585E-02
 cg2d: Sum(rhs),rhsMax =  -6.69899691274622E-11  9.01322159247263E-02
 cg2d: Sum(rhs),rhsMax =  -6.69595490165875E-11  9.00858255071236E-02
 cg2d: Sum(rhs),rhsMax =  -6.68973765272085E-11  9.00356231215462E-02
 cg2d: Sum(rhs),rhsMax =  -6.68873845199869E-11  8.99822010241039E-02
 cg2d: Sum(rhs),rhsMax =  -6.68758382005308E-11  8.99235076455354E-02
 cg2d: Sum(rhs),rhsMax =  -6.68286537219842E-11  8.98617391439472E-02
 cg2d: Sum(rhs),rhsMax =  -6.67655930541855E-11  8.97938567865284E-02
 cg2d: Sum(rhs),rhsMax =  -6.68055610830720E-11  8.97230726614233E-02
 cg2d: Sum(rhs),rhsMax =  -6.68141098003616E-11  8.96495117907436E-02
 cg2d: Sum(rhs),rhsMax =  -6.68348709709221E-11  8.95720089939682E-02
 cg2d: Sum(rhs),rhsMax =  -6.68702870854077E-11  8.94925659666352E-02
 cg2d: Sum(rhs),rhsMax =  -6.68687327731732E-11  8.94168055156183E-02
 cg2d: Sum(rhs),rhsMax =  -6.68957111926716E-11  8.93317879058640E-02
 cg2d: Sum(rhs),rhsMax =  -6.69156952071148E-11  8.92451949626772E-02
 cg2d: Sum(rhs),rhsMax =  -6.69475586079216E-11  8.91572042377838E-02
 cg2d: Sum(rhs),rhsMax =  -6.69473365633166E-11  8.90708333761660E-02
 cg2d: Sum(rhs),rhsMax =  -6.69465594071994E-11  8.89844639711963E-02
 cg2d: Sum(rhs),rhsMax =  -6.69508892769954E-11  8.88984136973820E-02
 cg2d: Sum(rhs),rhsMax =  -6.69415634035886E-11  8.88134095627084E-02
 cg2d: Sum(rhs),rhsMax =  -6.69402311359590E-11  8.87308920697239E-02
 cg2d: Sum(rhs),rhsMax =  -6.69307942402497E-11  8.86513036294374E-02
 cg2d: Sum(rhs),rhsMax =  -6.69079236459424E-11  8.85896894264976E-02
 cg2d: Sum(rhs),rhsMax =  -6.69346800208359E-11  8.85152191067662E-02
 cg2d: Sum(rhs),rhsMax =  -6.68868849196258E-11  8.84427282778155E-02
 cg2d: Sum(rhs),rhsMax =  -6.68996524844090E-11  8.83734129479244E-02
 cg2d: Sum(rhs),rhsMax =  -6.68880506538017E-11  8.83080384577205E-02
 cg2d: Sum(rhs),rhsMax =  -6.68621269461767E-11  8.82470020604484E-02
 cg2d: Sum(rhs),rhsMax =  -6.68624600130840E-11  8.81902099578118E-02
 cg2d: Sum(rhs),rhsMax =  -6.68192723374261E-11  8.81372383288929E-02
 cg2d: Sum(rhs),rhsMax =  -6.67733646153579E-11  8.80887199822075E-02
 cg2d: Sum(rhs),rhsMax =  -6.67575439372570E-11  8.80456216619397E-02
 cg2d: Sum(rhs),rhsMax =  -6.67262356479625E-11  8.80074425293362E-02
 cg2d: Sum(rhs),rhsMax =  -6.66659505377254E-11  8.79741909487002E-02
 cg2d: Sum(rhs),rhsMax =  -6.66220412171015E-11  8.79459021198308E-02
 cg2d: Sum(rhs),rhsMax =  -6.65417720924211E-11  8.79553496294752E-02
 cg2d: Sum(rhs),rhsMax =  -6.64598931443550E-11  8.79552886481405E-02
 cg2d: Sum(rhs),rhsMax =  -6.63726851257707E-11  8.79567028940883E-02
 cg2d: Sum(rhs),rhsMax =  -6.62848109733716E-11  8.79618088578244E-02
 cg2d: Sum(rhs),rhsMax =  -6.61987131778119E-11  8.79703536947092E-02
 cg2d: Sum(rhs),rhsMax =  -6.60918542116917E-11  8.79822039139259E-02
 cg2d: Sum(rhs),rhsMax =  -6.60143884001485E-11  8.79969900077931E-02
 cg2d: Sum(rhs),rhsMax =  -6.59166887739815E-11  8.80154501865806E-02
 cg2d: Sum(rhs),rhsMax =  -6.58092746963490E-11  8.80373212078078E-02
 cg2d: Sum(rhs),rhsMax =  -6.56870113857622E-11  8.80623253337806E-02
 cg2d: Sum(rhs),rhsMax =  -6.55740461930066E-11  8.80927136302063E-02
 cg2d: Sum(rhs),rhsMax =  -6.54654941367738E-11  8.81277938786576E-02
 cg2d: Sum(rhs),rhsMax =  -6.53660459093430E-11  8.81655178100951E-02
 cg2d: Sum(rhs),rhsMax =  -6.52461140671079E-11  8.82047866604988E-02
 cg2d: Sum(rhs),rhsMax =  -6.51305537280322E-11  8.82449106625192E-02
 cg2d: Sum(rhs),rhsMax =  -6.50400844293131E-11  8.82857419741220E-02
 cg2d: Sum(rhs),rhsMax =  -6.49230391669420E-11  8.83269626019543E-02
 cg2d: Sum(rhs),rhsMax =  -6.48219533605499E-11  8.83670192203773E-02
 cg2d: Sum(rhs),rhsMax =  -6.47129710928951E-11  8.84054404720803E-02
 cg2d: Sum(rhs),rhsMax =  -6.45988262881758E-11  8.84422856432286E-02
 cg2d: Sum(rhs),rhsMax =  -6.44891987033880E-11  8.84776520393443E-02
 cg2d: Sum(rhs),rhsMax =  -6.44535362581689E-11  8.84850821026064E-02
 cg2d: Sum(rhs),rhsMax =  -6.43469782665718E-11  8.84892745229863E-02
 cg2d: Sum(rhs),rhsMax =  -6.42585012977648E-11  8.85063016609924E-02
 cg2d: Sum(rhs),rhsMax =  -6.41542131918360E-11  8.85284451936098E-02
 cg2d: Sum(rhs),rhsMax =  -6.40490369074875E-11  8.85472190369593E-02
 cg2d: Sum(rhs),rhsMax =  -6.39372582655895E-11  8.85594925090839E-02
 cg2d: Sum(rhs),rhsMax =  -6.38625680116078E-11  8.85645335666861E-02
 cg2d: Sum(rhs),rhsMax =  -6.37671720982169E-11  8.85641231885430E-02
 cg2d: Sum(rhs),rhsMax =  -6.37140201709130E-11  8.85575753563789E-02
 cg2d: Sum(rhs),rhsMax =  -6.36358743477672E-11  8.85436623202267E-02
 cg2d: Sum(rhs),rhsMax =  -6.35472785504021E-11  8.85227351209906E-02
 cg2d: Sum(rhs),rhsMax =  -6.34982066927137E-11  8.84953368697317E-02
 cg2d: Sum(rhs),rhsMax =  -6.34396424281647E-11  8.84605643064095E-02
 cg2d: Sum(rhs),rhsMax =  -6.33895436141785E-11  8.84178938829884E-02
 cg2d: Sum(rhs),rhsMax =  -6.33405550232169E-11  8.83681157064232E-02
 cg2d: Sum(rhs),rhsMax =  -6.33222918544618E-11  8.83113998146686E-02
 cg2d: Sum(rhs),rhsMax =  -6.32907060094112E-11  8.82476510099138E-02
 cg2d: Sum(rhs),rhsMax =  -6.32484065121730E-11  8.81762977417510E-02
 cg2d: Sum(rhs),rhsMax =  -6.32233987385433E-11  8.80983174220447E-02
 cg2d: Sum(rhs),rhsMax =  -6.34945429567324E-11  8.76150048358841E-02
 cg2d: Sum(rhs),rhsMax =  -6.34668984034192E-11  8.76286581074750E-02
 cg2d: Sum(rhs),rhsMax =  -6.34043928471328E-11  8.75884943425975E-02
 cg2d: Sum(rhs),rhsMax =  -6.33823549200940E-11  8.75168146017783E-02
 cg2d: Sum(rhs),rhsMax =  -6.33628705060119E-11  8.74417689639473E-02
 cg2d: Sum(rhs),rhsMax =  -6.33589847254257E-11  8.73644689259543E-02
 cg2d: Sum(rhs),rhsMax =  -6.33686991768911E-11  8.72848972712447E-02
 cg2d: Sum(rhs),rhsMax =  -6.33633145952217E-11  8.72035340596126E-02
 cg2d: Sum(rhs),rhsMax =  -6.33400554228558E-11  8.71199281336405E-02
 cg2d: Sum(rhs),rhsMax =  -6.33404440009144E-11  8.70356633223507E-02
 cg2d: Sum(rhs),rhsMax =  -6.33512686754045E-11  8.69521324695352E-02
 cg2d: Sum(rhs),rhsMax =  -6.33451069376179E-11  8.68698917612836E-02
 cg2d: Sum(rhs),rhsMax =  -6.33279539918874E-11  8.67884189532747E-02
 cg2d: Sum(rhs),rhsMax =  -6.33348373746401E-11  8.67080419406848E-02
 cg2d: Sum(rhs),rhsMax =  -6.33129104699037E-11  8.66296555014148E-02
 cg2d: Sum(rhs),rhsMax =  -6.33190166965392E-11  8.65576250521643E-02
 cg2d: Sum(rhs),rhsMax =  -6.33396668447972E-11  8.64898549396187E-02
 cg2d: Sum(rhs),rhsMax =  -6.33361696422696E-11  8.64253819439750E-02
 cg2d: Sum(rhs),rhsMax =  -6.33262331461992E-11  8.63631098353231E-02
 cg2d: Sum(rhs),rhsMax =  -6.33220142987057E-11  8.63009342846349E-02
 cg2d: Sum(rhs),rhsMax =  -6.33176289177584E-11  8.62462938835551E-02
 cg2d: Sum(rhs),rhsMax =  -6.32894847640841E-11  8.61956507441725E-02
 cg2d: Sum(rhs),rhsMax =  -6.32843777381709E-11  8.61522899801152E-02
 cg2d: Sum(rhs),rhsMax =  -6.32959240576270E-11  8.61136079507199E-02
 cg2d: Sum(rhs),rhsMax =  -6.32657259913572E-11  8.60799354710260E-02
 cg2d: Sum(rhs),rhsMax =  -6.32531804711789E-11  8.60509452918949E-02
 cg2d: Sum(rhs),rhsMax =  -6.32345287243652E-11  8.60227306882812E-02
 cg2d: Sum(rhs),rhsMax =  -6.32172092451810E-11  8.60078498438715E-02
 cg2d: Sum(rhs),rhsMax =  -6.32143226653170E-11  8.59965947038882E-02
 cg2d: Sum(rhs),rhsMax =  -6.31898977587753E-11  8.59907552713366E-02
 cg2d: Sum(rhs),rhsMax =  -6.31522611982405E-11  8.59914582779165E-02
 cg2d: Sum(rhs),rhsMax =  -6.31168450837549E-11  8.59987304851790E-02
 cg2d: Sum(rhs),rhsMax =  -6.31100727233047E-11  8.60125182152603E-02
 cg2d: Sum(rhs),rhsMax =  -6.30316909777662E-11  8.60318850615714E-02
 cg2d: Sum(rhs),rhsMax =  -6.29624130610296E-11  8.60559099565619E-02
 cg2d: Sum(rhs),rhsMax =  -6.28822549586516E-11  8.60851606972975E-02
 cg2d: Sum(rhs),rhsMax =  -6.27848883993920E-11  8.61198691255207E-02
 cg2d: Sum(rhs),rhsMax =  -6.27164986610751E-11  8.61589872486910E-02
 cg2d: Sum(rhs),rhsMax =  -6.26375618040242E-11  8.62033897389780E-02
 cg2d: Sum(rhs),rhsMax =  -6.25570706347389E-11  8.62509859503613E-02
 cg2d: Sum(rhs),rhsMax =  -6.24811313798546E-11  8.63026691212201E-02
 cg2d: Sum(rhs),rhsMax =  -6.24165163998214E-11  8.63571907235995E-02
 cg2d: Sum(rhs),rhsMax =  -6.23091578333401E-11  8.64153813110983E-02
 cg2d: Sum(rhs),rhsMax =  -6.22703000274782E-11  8.64774010621995E-02
 cg2d: Sum(rhs),rhsMax =  -6.22071283373771E-11  8.65412888172264E-02
 cg2d: Sum(rhs),rhsMax =  -6.21485085616769E-11  8.66084162202017E-02
 cg2d: Sum(rhs),rhsMax =  -6.20284934527149E-11  8.66767681259470E-02
 cg2d: Sum(rhs),rhsMax =  -6.19566620230216E-11  8.67456931561490E-02
 cg2d: Sum(rhs),rhsMax =  -6.18336493118932E-11  8.68157480159031E-02
 cg2d: Sum(rhs),rhsMax =  -6.17765838484274E-11  8.68876541581806E-02
 cg2d: Sum(rhs),rhsMax =  -6.17010886827529E-11  8.69588138855944E-02
 cg2d: Sum(rhs),rhsMax =  -6.15340001175468E-11  8.70310270410215E-02
 cg2d: Sum(rhs),rhsMax =  -6.14545081489837E-11  8.71029687569826E-02
 cg2d: Sum(rhs),rhsMax =  -6.13610273703102E-11  8.71745177194969E-02
 cg2d: Sum(rhs),rhsMax =  -6.12809802902348E-11  8.72456286548885E-02
 cg2d: Sum(rhs),rhsMax =  -6.12795370003028E-11  8.73186470175474E-02
 cg2d: Sum(rhs),rhsMax =  -6.12504491570576E-11  8.73885966906111E-02
 cg2d: Sum(rhs),rhsMax =  -6.12215833584173E-11  8.74574148452700E-02
 cg2d: Sum(rhs),rhsMax =  -6.12087047713317E-11  8.75250560915392E-02
 cg2d: Sum(rhs),rhsMax =  -6.12451200865394E-11  8.75907704011588E-02
 cg2d: Sum(rhs),rhsMax =  -6.11990458310174E-11  8.76550691495696E-02
 cg2d: Sum(rhs),rhsMax =  -6.11984907195051E-11  8.77179049557509E-02
 cg2d: Sum(rhs),rhsMax =  -6.11559691776620E-11  8.77793981720705E-02
 cg2d: Sum(rhs),rhsMax =  -6.11605210920629E-11  8.78396878391990E-02
 cg2d: Sum(rhs),rhsMax =  -6.11475314826748E-11  8.78851845177843E-02
 cg2d: Sum(rhs),rhsMax =  -6.11424244567615E-11  8.79347841050213E-02
 cg2d: Sum(rhs),rhsMax =  -6.11828365748579E-11  8.79912377936001E-02
 cg2d: Sum(rhs),rhsMax =  -6.11896089353081E-11  8.80461459502700E-02
 cg2d: Sum(rhs),rhsMax =  -6.12059292137701E-11  8.80973800513667E-02
 cg2d: Sum(rhs),rhsMax =  -6.12127015742203E-11  8.81475910271358E-02
 cg2d: Sum(rhs),rhsMax =  -6.12351280793177E-11  8.81956095206965E-02
 cg2d: Sum(rhs),rhsMax =  -6.12701001045934E-11  8.82415150469426E-02
 cg2d: Sum(rhs),rhsMax =  -6.13114004011095E-11  8.82972358349390E-02
 cg2d: Sum(rhs),rhsMax =  -6.13584738573536E-11  8.83382697143127E-02
 cg2d: Sum(rhs),rhsMax =  -6.14125417186528E-11  8.83859206192836E-02
 cg2d: Sum(rhs),rhsMax =  -6.14421846734103E-11  8.84282347589266E-02
 cg2d: Sum(rhs),rhsMax =  -6.14607253979216E-11  8.84691593956264E-02
 cg2d: Sum(rhs),rhsMax =  -6.14701622936309E-11  8.85077176131442E-02
 cg2d: Sum(rhs),rhsMax =  -6.14744921634269E-11  8.85450449599855E-02
 cg2d: Sum(rhs),rhsMax =  -6.15141271254060E-11  8.85912880326738E-02
 cg2d: Sum(rhs),rhsMax =  -6.15316686491951E-11  8.86313753069761E-02
 cg2d: Sum(rhs),rhsMax =  -6.15570927564590E-11  8.86691097952722E-02
 cg2d: Sum(rhs),rhsMax =  -6.15822948191180E-11  8.87061411693950E-02
 cg2d: Sum(rhs),rhsMax =  -6.16092732386164E-11  8.87403759722973E-02
 cg2d: Sum(rhs),rhsMax =  -6.16430240185650E-11  8.87711713113169E-02
 cg2d: Sum(rhs),rhsMax =  -6.16446338419507E-11  8.87988786523556E-02
 cg2d: Sum(rhs),rhsMax =  -6.17011441939042E-11  8.88232069967154E-02
 cg2d: Sum(rhs),rhsMax =  -6.17414452896980E-11  8.88447167107642E-02
 cg2d: Sum(rhs),rhsMax =  -6.18126660967278E-11  8.88632857052449E-02
 cg2d: Sum(rhs),rhsMax =  -6.18496920345990E-11  8.88797184713753E-02
 cg2d: Sum(rhs),rhsMax =  -6.18953222009111E-11  8.88944703441435E-02
 cg2d: Sum(rhs),rhsMax =  -6.19552742442409E-11  8.89076115893658E-02
 cg2d: Sum(rhs),rhsMax =  -6.20316575883351E-11  8.89195477009664E-02
 cg2d: Sum(rhs),rhsMax =  -6.20802298456624E-11  8.89305221498801E-02
 cg2d: Sum(rhs),rhsMax =  -6.22604745537103E-11  8.87627970862922E-02
 cg2d: Sum(rhs),rhsMax =  -6.23504026187049E-11  8.87830155206889E-02
 cg2d: Sum(rhs),rhsMax =  -6.23888718465082E-11  8.88175566791021E-02
 cg2d: Sum(rhs),rhsMax =  -6.24605367427478E-11  8.88389646731378E-02
 cg2d: Sum(rhs),rhsMax =  -6.25056673086988E-11  8.88605374393764E-02
 cg2d: Sum(rhs),rhsMax =  -6.25708374002443E-11  8.88822934471201E-02
 cg2d: Sum(rhs),rhsMax =  -6.26316221108425E-11  8.89042301614373E-02
 cg2d: Sum(rhs),rhsMax =  -6.27020657617550E-11  8.89274668590818E-02
 cg2d: Sum(rhs),rhsMax =  -6.27687901655349E-11  8.89518729352629E-02
 cg2d: Sum(rhs),rhsMax =  -6.28271878966302E-11  8.89788188713944E-02
 cg2d: Sum(rhs),rhsMax =  -6.28198604246677E-11  8.90008896871311E-02
 cg2d: Sum(rhs),rhsMax =  -6.28512797362646E-11  8.90192123136124E-02
 cg2d: Sum(rhs),rhsMax =  -6.29090668446963E-11  8.90464214346074E-02
 cg2d: Sum(rhs),rhsMax =  -6.29635787952054E-11  8.90810537687935E-02
 cg2d: Sum(rhs),rhsMax =  -6.30258623068869E-11  8.91179888646527E-02
 cg2d: Sum(rhs),rhsMax =  -6.30897278863785E-11  8.91569405570306E-02
 cg2d: Sum(rhs),rhsMax =  -6.31489305291666E-11  8.91979484550773E-02
 cg2d: Sum(rhs),rhsMax =  -6.31841523546228E-11  8.92417310994715E-02
 cg2d: Sum(rhs),rhsMax =  -6.32266738964660E-11  8.92886657681624E-02
 cg2d: Sum(rhs),rhsMax =  -6.32705277059387E-11  8.93391837677390E-02
 cg2d: Sum(rhs),rhsMax =  -6.33268160132872E-11  8.93727886246267E-02
 cg2d: Sum(rhs),rhsMax =  -6.33584018583377E-11  8.94376676563615E-02
 cg2d: Sum(rhs),rhsMax =  -6.33958163742676E-11  8.95014454291120E-02
 cg2d: Sum(rhs),rhsMax =  -6.34362423701518E-11  8.95685400370981E-02
 cg2d: Sum(rhs),rhsMax =  -6.34811092581344E-11  8.96393313362333E-02
 cg2d: Sum(rhs),rhsMax =  -6.35038133189880E-11  8.97141111305902E-02
 cg2d: Sum(rhs),rhsMax =  -6.35484442845780E-11  8.97931588203543E-02
 cg2d: Sum(rhs),rhsMax =  -6.35912017488138E-11  8.98771383920389E-02
 cg2d: Sum(rhs),rhsMax =  -6.36182703739330E-11  8.99679282100422E-02
 cg2d: Sum(rhs),rhsMax =  -6.36530377018385E-11  9.00624834263184E-02
 cg2d: Sum(rhs),rhsMax =  -6.36872533876787E-11  9.01626485043224E-02
 cg2d: Sum(rhs),rhsMax =  -6.36950076016163E-11  9.02677504380459E-02
 cg2d: Sum(rhs),rhsMax =  -6.37056414565240E-11  9.03781278766923E-02
 cg2d: Sum(rhs),rhsMax =  -6.37110919576855E-11  9.04938136652260E-02
 cg2d: Sum(rhs),rhsMax =  -6.37370503597801E-11  9.06145136029258E-02
 cg2d: Sum(rhs),rhsMax =  -6.37475627840445E-11  9.07399801161864E-02
 cg2d: Sum(rhs),rhsMax =  -6.37464664388077E-11  9.08726802799770E-02
 cg2d: Sum(rhs),rhsMax =  -6.37608577047644E-11  9.10066562720031E-02
 cg2d: Sum(rhs),rhsMax =  -6.37468133835029E-11  9.11447682492073E-02
 cg2d: Sum(rhs),rhsMax =  -6.37449953933000E-11  9.12867381999069E-02
 cg2d: Sum(rhs),rhsMax =  -6.37395136671159E-11  9.14321310306940E-02
 cg2d: Sum(rhs),rhsMax =  -6.37126185143444E-11  9.15806643438957E-02
 cg2d: Sum(rhs),rhsMax =  -6.36832808709187E-11  9.17318957087881E-02
 cg2d: Sum(rhs),rhsMax =  -6.36854180502411E-11  9.18854859195044E-02
 cg2d: Sum(rhs),rhsMax =  -6.36728447744872E-11  9.20442906494188E-02
 cg2d: Sum(rhs),rhsMax =  -6.36292962763463E-11  9.22364928216411E-02
 cg2d: Sum(rhs),rhsMax =  -6.35960450967588E-11  9.23871738440978E-02
 cg2d: Sum(rhs),rhsMax =  -6.35770047718864E-11  9.25409934226947E-02
 cg2d: Sum(rhs),rhsMax =  -6.35485553068804E-11  9.26983249938379E-02
 cg2d: Sum(rhs),rhsMax =  -6.35363428536095E-11  9.28483649780247E-02
 cg2d: Sum(rhs),rhsMax =  -6.34974850477477E-11  9.30083759262142E-02
 cg2d: Sum(rhs),rhsMax =  -6.35003716276117E-11  9.31655261522034E-02
 cg2d: Sum(rhs),rhsMax =  -6.34633456897404E-11  9.33206814189202E-02
 cg2d: Sum(rhs),rhsMax =  -6.34589603087932E-11  9.34741479513593E-02
 cg2d: Sum(rhs),rhsMax =  -6.34193253468140E-11  9.36254522368447E-02
 cg2d: Sum(rhs),rhsMax =  -6.34036712021668E-11  9.37741937427728E-02
 cg2d: Sum(rhs),rhsMax =  -6.33904040370226E-11  9.39199012815506E-02
 cg2d: Sum(rhs),rhsMax =  -6.33537111660587E-11  9.40622043369572E-02
 cg2d: Sum(rhs),rhsMax =  -6.33559316121080E-11  9.42019599023723E-02
 cg2d: Sum(rhs),rhsMax =  -6.33282870587948E-11  9.43364458316031E-02
 cg2d: Sum(rhs),rhsMax =  -6.33196828303539E-11  9.44668079307405E-02
 cg2d: Sum(rhs),rhsMax =  -6.33221808321593E-11  9.45928826982034E-02
 cg2d: Sum(rhs),rhsMax =  -6.33230690105790E-11  9.47106328188324E-02
 cg2d: Sum(rhs),rhsMax =  -6.33322838616834E-11  9.48201797079445E-02
 cg2d: Sum(rhs),rhsMax =  -6.33388341775287E-11  9.49255049334349E-02
 cg2d: Sum(rhs),rhsMax =  -6.33355590196061E-11  9.50286628830799E-02
 cg2d: Sum(rhs),rhsMax =  -6.33272323469214E-11  9.51290799750103E-02
 cg2d: Sum(rhs),rhsMax =  -6.33365582203282E-11  9.52251337456839E-02
 cg2d: Sum(rhs),rhsMax =  -6.33421093354514E-11  9.53158590296264E-02
 cg2d: Sum(rhs),rhsMax =  -6.33510466307996E-11  9.54010914145030E-02
 cg2d: Sum(rhs),rhsMax =  -6.33554875228981E-11  9.54810547158815E-02
 cg2d: Sum(rhs),rhsMax =  -6.33881835909733E-11  9.55507937952403E-02
 cg2d: Sum(rhs),rhsMax =  -6.33834096319674E-11  9.56212846563836E-02
 cg2d: Sum(rhs),rhsMax =  -6.34120533860028E-11  9.56866669531592E-02
 cg2d: Sum(rhs),rhsMax =  -6.34228225493416E-11  9.57467858724874E-02
 cg2d: Sum(rhs),rhsMax =  -6.34500230134449E-11  9.58020066371281E-02
 cg2d: Sum(rhs),rhsMax =  -6.35437258367233E-11  9.58525226066718E-02
 cg2d: Sum(rhs),rhsMax =  -6.36033448131457E-11  9.58986152750720E-02
 cg2d: Sum(rhs),rhsMax =  -6.37430108696435E-11  9.59403859003375E-02
 cg2d: Sum(rhs),rhsMax =  -6.38101793626333E-11  9.59779573264586E-02
 cg2d: Sum(rhs),rhsMax =  -6.39153174830653E-11  9.60131124793382E-02
 cg2d: Sum(rhs),rhsMax =  -6.40032471466156E-11  9.60431919365696E-02
 cg2d: Sum(rhs),rhsMax =  -6.40871800072773E-11  9.60725134655667E-02
 cg2d: Sum(rhs),rhsMax =  -6.41842134996295E-11  9.60951193411143E-02
 cg2d: Sum(rhs),rhsMax =  -6.42802477912596E-11  9.61149220435007E-02
 cg2d: Sum(rhs),rhsMax =  -6.43793907073587E-11  9.61321262971511E-02
 cg2d: Sum(rhs),rhsMax =  -6.44859721177227E-11  9.61465731183978E-02
 cg2d: Sum(rhs),rhsMax =  -6.45986597547221E-11  9.61587419180918E-02
 cg2d: Sum(rhs),rhsMax =  -6.46931397341177E-11  9.61688944953971E-02
 cg2d: Sum(rhs),rhsMax =  -6.47859543789764E-11  9.61769093091019E-02
 cg2d: Sum(rhs),rhsMax =  -6.48689990612183E-11  9.61832138335836E-02
 cg2d: Sum(rhs),rhsMax =  -6.49628129067992E-11  9.61877681890686E-02
 cg2d: Sum(rhs),rhsMax =  -6.50385301170786E-11  9.61906135509286E-02
 cg2d: Sum(rhs),rhsMax =  -6.51031450971118E-11  9.61918248786784E-02
 cg2d: Sum(rhs),rhsMax =  -6.52066178830069E-11  9.61889089187501E-02
 cg2d: Sum(rhs),rhsMax =  -6.53045395537788E-11  9.61808492660092E-02
 cg2d: Sum(rhs),rhsMax =  -6.53485043855540E-11  9.61742157220161E-02
 cg2d: Sum(rhs),rhsMax =  -6.54352128037772E-11  9.61644572435639E-02
 cg2d: Sum(rhs),rhsMax =  -6.54579723757820E-11  9.61629102949103E-02
 cg2d: Sum(rhs),rhsMax =  -6.56051879488473E-11  9.61532746828028E-02
 cg2d: Sum(rhs),rhsMax =  -6.57061072217857E-11  9.61424964455961E-02
 cg2d: Sum(rhs),rhsMax =  -6.58259002861428E-11  9.61307202738403E-02
 cg2d: Sum(rhs),rhsMax =  -6.59179377748842E-11  9.61171623146002E-02
 cg2d: Sum(rhs),rhsMax =  -6.59989840556818E-11  9.61021301661986E-02
 cg2d: Sum(rhs),rhsMax =  -6.61164456516872E-11  9.60855285214962E-02
 cg2d: Sum(rhs),rhsMax =  -6.62252475081004E-11  9.60674759226524E-02
 cg2d: Sum(rhs),rhsMax =  -6.63580301818456E-11  9.60479916219385E-02
 cg2d: Sum(rhs),rhsMax =  -6.64627242130678E-11  9.60271036036589E-02
 cg2d: Sum(rhs),rhsMax =  -6.65495436535934E-11  9.60048227289010E-02
 cg2d: Sum(rhs),rhsMax =  -6.65857369241962E-11  9.59812017031290E-02
 cg2d: Sum(rhs),rhsMax =  -6.65457688953097E-11  9.59565611272589E-02
 cg2d: Sum(rhs),rhsMax =  -6.64953647699917E-11  9.59303821021070E-02
 cg2d: Sum(rhs),rhsMax =  -6.65667521104751E-11  9.59031715840045E-02
 cg2d: Sum(rhs),rhsMax =  -6.65277832823108E-11  9.58751154901885E-02
 cg2d: Sum(rhs),rhsMax =  -6.65048016657011E-11  9.58459796109277E-02
 cg2d: Sum(rhs),rhsMax =  -6.65250077247492E-11  9.58157566344465E-02
 cg2d: Sum(rhs),rhsMax =  -6.65272281707985E-11  9.57845827209285E-02
 cg2d: Sum(rhs),rhsMax =  -6.64831523167209E-11  9.57526873299376E-02
 cg2d: Sum(rhs),rhsMax =  -6.64882593426341E-11  9.57202689824521E-02
 cg2d: Sum(rhs),rhsMax =  -6.65405508470940E-11  9.56869933489712E-02
 cg2d: Sum(rhs),rhsMax =  -6.65365540442053E-11  9.56665830869925E-02
 cg2d: Sum(rhs),rhsMax =  -6.65451027614949E-11  9.56344877427895E-02
 cg2d: Sum(rhs),rhsMax =  -6.65667521104751E-11  9.56000850942377E-02
 cg2d: Sum(rhs),rhsMax =  -6.65648647313333E-11  9.55647842529417E-02
 cg2d: Sum(rhs),rhsMax =  -6.65598687277225E-11  9.55287615802069E-02
 cg2d: Sum(rhs),rhsMax =  -6.65665300658702E-11  9.54919941854049E-02
 cg2d: Sum(rhs),rhsMax =  -6.65548727241116E-11  9.54546687836485E-02
 cg2d: Sum(rhs),rhsMax =  -6.65516530773402E-11  9.54168896067377E-02
 cg2d: Sum(rhs),rhsMax =  -6.65379973341373E-11  9.53789322413305E-02
 cg2d: Sum(rhs),rhsMax =  -6.65252297693542E-11  9.53412426765678E-02
 cg2d: Sum(rhs),rhsMax =  -6.64911459224982E-11  9.53038989881782E-02
 cg2d: Sum(rhs),rhsMax =  -6.64817090267888E-11  9.52665896800333E-02
 cg2d: Sum(rhs),rhsMax =  -6.64693855512155E-11  9.52293356379757E-02
 cg2d: Sum(rhs),rhsMax =  -6.64134303107744E-11  9.51919455754163E-02
 cg2d: Sum(rhs),rhsMax =  -6.63926691402139E-11  9.51551278848001E-02
 cg2d: Sum(rhs),rhsMax =  -6.63471499962043E-11  9.51183711416456E-02
 cg2d: Sum(rhs),rhsMax =  -6.62839783061031E-11  9.50813168487796E-02
 cg2d: Sum(rhs),rhsMax =  -6.62565557973949E-11  9.50444400830751E-02
 cg2d: Sum(rhs),rhsMax =  -6.62369048498590E-11  9.50075605551908E-02
 cg2d: Sum(rhs),rhsMax =  -6.61661836431904E-11  9.49704475748080E-02
 cg2d: Sum(rhs),rhsMax =  -6.60934640350774E-11  9.49819426713535E-02
 cg2d: Sum(rhs),rhsMax =  -6.60786980688499E-11  9.49699638372699E-02
 cg2d: Sum(rhs),rhsMax =  -6.60171917132857E-11  9.49536045613256E-02
 cg2d: Sum(rhs),rhsMax =  -6.59934329405587E-11  9.49348670367774E-02
 cg2d: Sum(rhs),rhsMax =  -6.59629573185327E-11  9.49136871876973E-02
 cg2d: Sum(rhs),rhsMax =  -6.59620691401130E-11  9.48902620983477E-02
 cg2d: Sum(rhs),rhsMax =  -6.59389209900496E-11  9.48642755588070E-02
 cg2d: Sum(rhs),rhsMax =  -6.58995635838266E-11  9.48362259041468E-02
 cg2d: Sum(rhs),rhsMax =  -6.58827992161548E-11  9.48061057310273E-02
 cg2d: Sum(rhs),rhsMax =  -6.58494370142648E-11  9.47741421561890E-02
 cg2d: Sum(rhs),rhsMax =  -6.58158527677699E-11  9.47405664002375E-02
 cg2d: Sum(rhs),rhsMax =  -6.57966459094439E-11  9.47054480035507E-02
 cg2d: Sum(rhs),rhsMax =  -6.57614518395633E-11  9.46687959374556E-02
 cg2d: Sum(rhs),rhsMax =  -6.57416898697250E-11  9.46305729460387E-02
 cg2d: Sum(rhs),rhsMax =  -6.57047194430049E-11  9.45908428612458E-02
 cg2d: Sum(rhs),rhsMax =  -6.56698029288805E-11  9.45496571682569E-02
 cg2d: Sum(rhs),rhsMax =  -6.56610876781372E-11  9.45073205749403E-02
 cg2d: Sum(rhs),rhsMax =  -6.56150134226152E-11  9.44636034876469E-02
 cg2d: Sum(rhs),rhsMax =  -6.56032450585542E-11  9.44184927227080E-02
 cg2d: Sum(rhs),rhsMax =  -6.55762666390558E-11  9.43719545271624E-02
 cg2d: Sum(rhs),rhsMax =  -6.55479004407766E-11  9.43239921958831E-02
 cg2d: Sum(rhs),rhsMax =  -6.55080989453438E-11  9.42747169730285E-02
 cg2d: Sum(rhs),rhsMax =  -6.54784559905863E-11  9.42239549735130E-02
 cg2d: Sum(rhs),rhsMax =  -6.54559184631864E-11  9.41719664879419E-02
 cg2d: Sum(rhs),rhsMax =  -6.54075127393128E-11  9.41191106185767E-02
 cg2d: Sum(rhs),rhsMax =  -6.53667675543090E-11  9.40654384905271E-02
 cg2d: Sum(rhs),rhsMax =  -6.53683773776947E-11  9.40109056748607E-02
 cg2d: Sum(rhs),rhsMax =  -6.53567200359362E-11  9.39556970523159E-02
 cg2d: Sum(rhs),rhsMax =  -6.53060383548620E-11  9.38998357649329E-02
 cg2d: Sum(rhs),rhsMax =  -6.52735365758161E-11  9.38431812540970E-02
 cg2d: Sum(rhs),rhsMax =  -6.52712051074644E-11  9.37858661572366E-02
 cg2d: Sum(rhs),rhsMax =  -6.52535803169485E-11  9.37281914113028E-02
 cg2d: Sum(rhs),rhsMax =  -6.52198295369999E-11  9.36701755133600E-02
 cg2d: Sum(rhs),rhsMax =  -6.52079779062120E-11  9.36118997084798E-02
 cg2d: Sum(rhs),rhsMax =  -6.51839970888801E-11  9.35537740836413E-02
 cg2d: Sum(rhs),rhsMax =  -6.51549647567862E-11  9.34958843253997E-02
 cg2d: Sum(rhs),rhsMax =  -6.51475817736724E-11  9.34388636354089E-02
 cg2d: Sum(rhs),rhsMax =  -6.51112219696159E-11  9.33827233279282E-02
 cg2d: Sum(rhs),rhsMax =  -6.50879072860988E-11  9.33277198333584E-02
 cg2d: Sum(rhs),rhsMax =  -6.50674653046579E-11  9.32741398847647E-02
 cg2d: Sum(rhs),rhsMax =  -6.50290238324303E-11  9.32220708923829E-02
 cg2d: Sum(rhs),rhsMax =  -6.50078740838111E-11  9.31720051016644E-02
 cg2d: Sum(rhs),rhsMax =  -6.49632708737968E-11  9.31238852656014E-02
 cg2d: Sum(rhs),rhsMax =  -6.51554504793594E-11  9.27285983481716E-02
 cg2d: Sum(rhs),rhsMax =  -6.50149170611236E-11  9.28866104050710E-02
 cg2d: Sum(rhs),rhsMax =  -6.49091995430506E-11  9.29278121283530E-02
 cg2d: Sum(rhs),rhsMax =  -6.48136596476112E-11  9.29489061975465E-02
 cg2d: Sum(rhs),rhsMax =  -6.46976743012839E-11  9.29752993959686E-02
 cg2d: Sum(rhs),rhsMax =  -6.46214574906434E-11  9.30030136896802E-02
 cg2d: Sum(rhs),rhsMax =  -6.45046759062406E-11  9.30310886787143E-02
 cg2d: Sum(rhs),rhsMax =  -6.44103867464274E-11  9.30590926128722E-02
 cg2d: Sum(rhs),rhsMax =  -6.43105221853624E-11  9.30880605179157E-02
 cg2d: Sum(rhs),rhsMax =  -6.41987712990399E-11  9.31179650068010E-02
 cg2d: Sum(rhs),rhsMax =  -6.40979075372528E-11  9.31486508268417E-02
 cg2d: Sum(rhs),rhsMax =  -6.40132391538373E-11  9.31803783108806E-02
 cg2d: Sum(rhs),rhsMax =  -6.39006625391403E-11  9.32078716713599E-02
 cg2d: Sum(rhs),rhsMax =  -6.37990493768115E-11  9.32304863756279E-02
 cg2d: Sum(rhs),rhsMax =  -6.37409014458967E-11  9.32491288744838E-02
 cg2d: Sum(rhs),rhsMax =  -6.36469210668622E-11  9.32645117613934E-02
 cg2d: Sum(rhs),rhsMax =  -6.35819175087704E-11  9.32770505969372E-02
 cg2d: Sum(rhs),rhsMax =  -6.34891583750630E-11  9.32871718578410E-02
 cg2d: Sum(rhs),rhsMax =  -6.34138297428422E-11  9.32951474795572E-02
 cg2d: Sum(rhs),rhsMax =  -6.33414987127878E-11  9.33019878130408E-02
 cg2d: Sum(rhs),rhsMax =  -6.32486285567779E-11  9.33076777614905E-02
 cg2d: Sum(rhs),rhsMax =  -6.31867058675795E-11  9.33124566050926E-02
 cg2d: Sum(rhs),rhsMax =  -6.31021346286786E-11  9.33166629023405E-02
 cg2d: Sum(rhs),rhsMax =  -6.30286101088728E-11  9.33206066995980E-02
 cg2d: Sum(rhs),rhsMax =  -6.29663543527670E-11  9.33242395210739E-02
 cg2d: Sum(rhs),rhsMax =  -6.28972429694841E-11  9.33277682367354E-02
 cg2d: Sum(rhs),rhsMax =  -6.28523899592892E-11  9.33312451420047E-02
 cg2d: Sum(rhs),rhsMax =  -6.27569107791714E-11  9.33347931556499E-02
 cg2d: Sum(rhs),rhsMax =  -6.26786400559354E-11  9.33385260227258E-02
 cg2d: Sum(rhs),rhsMax =  -6.26232399270066E-11  9.33424006796296E-02
 cg2d: Sum(rhs),rhsMax =  -6.25613449933837E-11  9.33464450578540E-02
 cg2d: Sum(rhs),rhsMax =  -6.25051677083377E-11  9.33507595134367E-02
 cg2d: Sum(rhs),rhsMax =  -6.24783558222930E-11  9.33557565693112E-02
 cg2d: Sum(rhs),rhsMax =  -6.24271190297065E-11  9.33616097339907E-02
 cg2d: Sum(rhs),rhsMax =  -6.23666673860157E-11  9.33683033650271E-02
 cg2d: Sum(rhs),rhsMax =  -6.23047169412416E-11  9.33758802307456E-02
 cg2d: Sum(rhs),rhsMax =  -6.22713547393516E-11  9.33844711041316E-02
 cg2d: Sum(rhs),rhsMax =  -6.21901974362515E-11  9.33941104790452E-02
 cg2d: Sum(rhs),rhsMax =  -6.21264151234868E-11  9.34052407463470E-02
 cg2d: Sum(rhs),rhsMax =  -6.20682949481477E-11  9.34193652711564E-02
 cg2d: Sum(rhs),rhsMax =  -6.20091755720864E-11  9.34337624932988E-02
 cg2d: Sum(rhs),rhsMax =  -6.19423401460040E-11  9.34483340217886E-02
 cg2d: Sum(rhs),rhsMax =  -6.18387008266552E-11  9.34626387294925E-02
 cg2d: Sum(rhs),rhsMax =  -6.17504936073487E-11  9.34766803029024E-02
 cg2d: Sum(rhs),rhsMax =  -6.16470763326049E-11  9.34908083919340E-02
 cg2d: Sum(rhs),rhsMax =  -6.15358874966887E-11  9.35055353821409E-02
 cg2d: Sum(rhs),rhsMax =  -6.14442385860059E-11  9.35219359974519E-02
 cg2d: Sum(rhs),rhsMax =  -6.13560868778507E-11  9.35430945679645E-02
 cg2d: Sum(rhs),rhsMax =  -6.12511152908723E-11  9.35626780324307E-02
 cg2d: Sum(rhs),rhsMax =  -6.11587447352235E-11  9.35851012258752E-02
 cg2d: Sum(rhs),rhsMax =  -6.10819728130707E-11  9.36092995354434E-02
 cg2d: Sum(rhs),rhsMax =  -6.10144712531735E-11  9.36355648607199E-02
 cg2d: Sum(rhs),rhsMax =  -6.09344796842493E-11  9.36639327955242E-02
 cg2d: Sum(rhs),rhsMax =  -6.08548766933836E-11  9.36945382647331E-02
 cg2d: Sum(rhs),rhsMax =  -6.07636163607594E-11  9.37272721526328E-02
 cg2d: Sum(rhs),rhsMax =  -6.06663608238023E-11  9.37624373760581E-02
 cg2d: Sum(rhs),rhsMax =  -6.05926420149672E-11  9.37999710789934E-02
 cg2d: Sum(rhs),rhsMax =  -6.04827299355293E-11  9.38397357951499E-02
 cg2d: Sum(rhs),rhsMax =  -6.04023497885464E-11  9.38817226108765E-02
 cg2d: Sum(rhs),rhsMax =  -6.03170846602552E-11  9.39257104169283E-02
 cg2d: Sum(rhs),rhsMax =  -6.02391470039265E-11  9.39697891153122E-02
 cg2d: Sum(rhs),rhsMax =  -6.01714233994244E-11  9.40158597809322E-02
 cg2d: Sum(rhs),rhsMax =  -6.00964833452622E-11  9.40647304030366E-02
 cg2d: Sum(rhs),rhsMax =  -6.00458571753393E-11  9.41155994570900E-02
 cg2d: Sum(rhs),rhsMax =  -5.99744698348559E-11  9.41679000943279E-02
 cg2d: Sum(rhs),rhsMax =  -5.99020832936503E-11  9.42209058970790E-02
 cg2d: Sum(rhs),rhsMax =  -5.98358029790802E-11  9.42752585436409E-02
 cg2d: Sum(rhs),rhsMax =  -5.97517590961161E-11  9.43306661329933E-02
 cg2d: Sum(rhs),rhsMax =  -5.96513949346900E-11  9.43868594754589E-02
 cg2d: Sum(rhs),rhsMax =  -5.95787863488795E-11  9.44442704512791E-02
(PID.TID 0000.0001)      cg2d_init_res =   1.05282845827554E-02
(PID.TID 0000.0001)      cg2d_iters(min,last) =      -1      36
(PID.TID 0000.0001)      cg2d_last_res =   8.30430425154010E-14
(PID.TID 0000.0001) // =======================================================
(PID.TID 0000.0001) // Begin MONITOR dynamic field statistics
(PID.TID 0000.0001) // =======================================================
(PID.TID 0000.0001) %MON time_tsnumber                =                  5280
(PID.TID 0000.0001) %MON time_secondsf                =   7.9200000000000E+04
(PID.TID 0000.0001) %MON dynstat_eta_max              =   1.3584111237232E-02
(PID.TID 0000.0001) %MON dynstat_eta_min              =  -1.4224028674532E-02
(PID.TID 0000.0001) %MON dynstat_eta_mean             =   1.2403219472126E-14
(PID.TID 0000.0001) %MON dynstat_eta_sd               =   7.1148456250180E-03
(PID.TID 0000.0001) %MON dynstat_eta_del2             =   6.9008244196610E-05
(PID.TID 0000.0001) %MON dynstat_uvel_max             =   1.2771537583611E+00
(PID.TID 0000.0001) %MON dynstat_uvel_min             =  -8.6716418412993E-01
(PID.TID 0000.0001) %MON dynstat_uvel_mean            =   4.5327709568608E-01
(PID.TID 0000.0001) %MON dynstat_uvel_sd              =   8.2324657787263E-02
(PID.TID 0000.0001) %MON dynstat_uvel_del2            =   9.4045866959817E-04
(PID.TID 0000.0001) %MON dynstat_vvel_max             =   0.0000000000000E+00
(PID.TID 0000.0001) %MON dynstat_vvel_min             =   0.0000000000000E+00
(PID.TID 0000.0001) %MON dynstat_vvel_mean            =   0.0000000000000E+00
(PID.TID 0000.0001) %MON dynstat_vvel_sd              =   0.0000000000000E+00
(PID.TID 0000.0001) %MON dynstat_vvel_del2            =   0.0000000000000E+00
(PID.TID 0000.0001) %MON dynstat_wvel_max             =   3.6350967436852E-02
(PID.TID 0000.0001) %MON dynstat_wvel_min             =  -8.0971074510471E-02
(PID.TID 0000.0001) %MON dynstat_wvel_mean            =  -2.8253613505135E-21
(PID.TID 0000.0001) %MON dynstat_wvel_sd              =   4.4439350195743E-03
(PID.TID 0000.0001) %MON dynstat_wvel_del2            =   1.3471141670101E-04
(PID.TID 0000.0001) %MON dynstat_theta_max            =   1.5000000000009E+01
(PID.TID 0000.0001) %MON dynstat_theta_min            =   9.9999999999949E+00
(PID.TID 0000.0001) %MON dynstat_theta_mean           =   1.1003110151885E+01
(PID.TID 0000.0001) %MON dynstat_theta_sd             =   1.8764072972800E+00
(PID.TID 0000.0001) %MON dynstat_theta_del2           =   6.0262961448252E-04
(PID.TID 0000.0001) %MON dynstat_salt_max             =   3.5000000000000E+01
(PID.TID 0000.0001) %MON dynstat_salt_min             =   3.5000000000000E+01
(PID.TID 0000.0001) %MON dynstat_salt_mean            =   3.5000000000000E+01
(PID.TID 0000.0001) %MON dynstat_salt_sd              =   4.0500935938326E-13
(PID.TID 0000.0001) %MON dynstat_salt_del2            =   0.0000000000000E+00
(PID.TID 0000.0001) %MON dynstat_sst_max              =   1.5000000000009E+01
(PID.TID 0000.0001) %MON dynstat_sst_min              =   1.4999993750132E+01
(PID.TID 0000.0001) %MON dynstat_sst_mean             =   1.4999999956096E+01
(PID.TID 0000.0001) %MON dynstat_sst_sd               =   4.5969796805833E-07
(PID.TID 0000.0001) %MON dynstat_sst_del2             =   2.4959811264993E-08
(PID.TID 0000.0001) %MON dynstat_sss_max              =   3.5000000000000E+01
(PID.TID 0000.0001) %MON dynstat_sss_min              =   3.5000000000000E+01
(PID.TID 0000.0001) %MON dynstat_sss_mean             =   3.5000000000000E+01
(PID.TID 0000.0001) %MON dynstat_sss_sd               =   4.2632564145606E-14
(PID.TID 0000.0001) %MON dynstat_sss_del2             =   0.0000000000000E+00
(PID.TID 0000.0001) %MON forcing_qnet_max             =   0.0000000000000E+00
(PID.TID 0000.0001) %MON forcing_qnet_min             =   0.0000000000000E+00
(PID.TID 0000.0001) %MON forcing_qnet_mean            =   0.0000000000000E+00
(PID.TID 0000.0001) %MON forcing_qnet_sd              =   0.0000000000000E+00
(PID.TID 0000.0001) %MON forcing_qnet_del2            =   0.0000000000000E+00
(PID.TID 0000.0001) %MON forcing_qsw_max              =   0.0000000000000E+00
(PID.TID 0000.0001) %MON forcing_qsw_min              =   0.0000000000000E+00
(PID.TID 0000.0001) %MON forcing_qsw_mean             =   0.0000000000000E+00
(PID.TID 0000.0001) %MON forcing_qsw_sd               =   0.0000000000000E+00
(PID.TID 0000.0001) %MON forcing_qsw_del2             =   0.0000000000000E+00
(PID.TID 0000.0001) %MON forcing_empmr_max            =   0.0000000000000E+00
(PID.TID 0000.0001) %MON forcing_empmr_min            =   0.0000000000000E+00
(PID.TID 0000.0001) %MON forcing_empmr_mean           =   0.0000000000000E+00
(PID.TID 0000.0001) %MON forcing_empmr_sd             =   0.0000000000000E+00
(PID.TID 0000.0001) %MON forcing_empmr_del2           =   0.0000000000000E+00
(PID.TID 0000.0001) %MON forcing_fu_max               =   0.0000000000000E+00
(PID.TID 0000.0001) %MON forcing_fu_min               =   0.0000000000000E+00
(PID.TID 0000.0001) %MON forcing_fu_mean              =   0.0000000000000E+00
(PID.TID 0000.0001) %MON forcing_fu_sd                =   0.0000000000000E+00
(PID.TID 0000.0001) %MON forcing_fu_del2              =   0.0000000000000E+00
(PID.TID 0000.0001) %MON forcing_fv_max               =   0.0000000000000E+00
(PID.TID 0000.0001) %MON forcing_fv_min               =   0.0000000000000E+00
(PID.TID 0000.0001) %MON forcing_fv_mean              =   0.0000000000000E+00
(PID.TID 0000.0001) %MON forcing_fv_sd                =   0.0000000000000E+00
(PID.TID 0000.0001) %MON forcing_fv_del2              =   0.0000000000000E+00
(PID.TID 0000.0001) %MON advcfl_uvel_max              =   9.3652128011156E-02
(PID.TID 0000.0001) %MON advcfl_vvel_max              =   0.0000000000000E+00
(PID.TID 0000.0001) %MON advcfl_wvel_max              =   4.5511037592435E-01
(PID.TID 0000.0001) %MON advcfl_W_hf_max              =   4.6006170565346E-01
(PID.TID 0000.0001) %MON pe_b_mean                    =   1.2546269835086E-06
(PID.TID 0000.0001) %MON ke_max                       =   6.2716834329302E-01
(PID.TID 0000.0001) %MON ke_mean                      =   1.0615256803813E-01
(PID.TID 0000.0001) %MON ke_vol                       =   9.6656886657870E+10
(PID.TID 0000.0001) %MON vort_r_min                   =   0.0000000000000E+00
(PID.TID 0000.0001) %MON vort_r_max                   =   0.0000000000000E+00
(PID.TID 0000.0001) %MON vort_a_mean                  =   0.0000000000000E+00
(PID.TID 0000.0001) %MON vort_a_sd                    =   0.0000000000000E+00
(PID.TID 0000.0001) %MON vort_p_mean                  =   0.0000000000000E+00
(PID.TID 0000.0001) %MON vort_p_sd                    =   0.0000000000000E+00
(PID.TID 0000.0001) %MON surfExpan_theta_mean         =  -3.0956550082590E-14
(PID.TID 0000.0001) %MON surfExpan_salt_mean          =  -1.7027350086875E-19
(PID.TID 0000.0001) // =======================================================
(PID.TID 0000.0001) // End MONITOR dynamic field statistics
(PID.TID 0000.0001) // =======================================================
(PID.TID 0000.0001) // =======================================================
(PID.TID 0000.0001) // Begin OBCS MONITOR field statistics
(PID.TID 0000.0001) // =======================================================
(PID.TID 0000.0001) %MON obc_E_uVel_max               =   4.4822851314926E-01
(PID.TID 0000.0001) %MON obc_E_uVel_min               =   4.4822851314926E-01
(PID.TID 0000.0001) %MON obc_E_uVel_mean              =   4.4822851314926E-01
(PID.TID 0000.0001) %MON obc_E_uVel_sd                =  -1.9428902930940E-16
(PID.TID 0000.0001) %MON obc_E_uVel_Int               =   4.4822851314926E+05
(PID.TID 0000.0001) %MON obc_W_uVel_max               =   4.4822851314926E-01
(PID.TID 0000.0001) %MON obc_W_uVel_min               =   4.4822851314926E-01
(PID.TID 0000.0001) %MON obc_W_uVel_mean              =   4.4822851314926E-01
(PID.TID 0000.0001) %MON obc_W_uVel_sd                =  -1.9428902930940E-16
(PID.TID 0000.0001) %MON obc_W_uVel_Int               =   4.4822851314926E+05
(PID.TID 0000.0001) // =======================================================
(PID.TID 0000.0001) // End OBCS MONITOR field statistics
(PID.TID 0000.0001) // =======================================================
 cg2d: Sum(rhs),rhsMax =  -5.95103966105626E-11  9.45028380229908E-02
 cg2d: Sum(rhs),rhsMax =  -5.94334581549560E-11  9.45626490327504E-02
 cg2d: Sum(rhs),rhsMax =  -5.93989302188902E-11  9.46238055442221E-02
 cg2d: Sum(rhs),rhsMax =  -5.93735061116263E-11  9.46862022284565E-02
 cg2d: Sum(rhs),rhsMax =  -5.93355364841841E-11  9.47503424464418E-02
 cg2d: Sum(rhs),rhsMax =  -5.92920157416188E-11  9.48160127231163E-02
 cg2d: Sum(rhs),rhsMax =  -5.92366156126900E-11  9.48834608059233E-02
 cg2d: Sum(rhs),rhsMax =  -5.91774407254775E-11  9.49528554831863E-02
 cg2d: Sum(rhs),rhsMax =  -5.92229598694871E-11  9.50244810146989E-02
 cg2d: Sum(rhs),rhsMax =  -5.92288440515176E-11  9.50984225280405E-02
 cg2d: Sum(rhs),rhsMax =  -5.92613735861391E-11  9.51749936718225E-02
 cg2d: Sum(rhs),rhsMax =  -5.92614846084416E-11  9.52542290935971E-02
 cg2d: Sum(rhs),rhsMax =  -5.92692561696140E-11  9.53360849604144E-02
 cg2d: Sum(rhs),rhsMax =  -5.92369486795974E-11  9.54206960520603E-02
 cg2d: Sum(rhs),rhsMax =  -5.91861004650696E-11  9.55081978964895E-02
 cg2d: Sum(rhs),rhsMax =  -5.91275917116718E-11  9.55984554669136E-02
 cg2d: Sum(rhs),rhsMax =  -5.91329207821900E-11  9.56916282681172E-02
 cg2d: Sum(rhs),rhsMax =  -5.90966164892848E-11  9.57878243443058E-02
 cg2d: Sum(rhs),rhsMax =  -5.90772986086563E-11  9.58865222621725E-02
 cg2d: Sum(rhs),rhsMax =  -5.90567594827007E-11  9.59872001063852E-02
 cg2d: Sum(rhs),rhsMax =  -5.90215654128201E-11  9.60902892237536E-02
 cg2d: Sum(rhs),rhsMax =  -5.90271165279432E-11  9.61956640983108E-02
 cg2d: Sum(rhs),rhsMax =  -5.90279491952117E-11  9.63037215570592E-02
 cg2d: Sum(rhs),rhsMax =  -5.90076321138611E-11  9.64144557385153E-02
 cg2d: Sum(rhs),rhsMax =  -5.90136828293453E-11  9.65278992518312E-02
 cg2d: Sum(rhs),rhsMax =  -5.90012483314695E-11  9.66446062182925E-02
 cg2d: Sum(rhs),rhsMax =  -5.90023030433429E-11  9.67648811836337E-02
 cg2d: Sum(rhs),rhsMax =  -5.90055782012655E-11  9.68884302459631E-02
 cg2d: Sum(rhs),rhsMax =  -5.90010817980158E-11  9.70152447433601E-02
 cg2d: Sum(rhs),rhsMax =  -5.89832072073193E-11  9.71450772125041E-02
 cg2d: Sum(rhs),rhsMax =  -5.89787108040696E-11  9.72776404116396E-02
 cg2d: Sum(rhs),rhsMax =  -5.89646109716568E-11  9.74125287427707E-02
 cg2d: Sum(rhs),rhsMax =  -5.89716608878632E-11  9.75494424998727E-02
 cg2d: Sum(rhs),rhsMax =  -5.89727155997366E-11  9.76881096350876E-02
 cg2d: Sum(rhs),rhsMax =  -5.89811532947238E-11  9.78282288235445E-02
 cg2d: Sum(rhs),rhsMax =  -5.89661652838913E-11  9.79697772105872E-02
 cg2d: Sum(rhs),rhsMax =  -5.89618354140953E-11  9.81115595933483E-02
 cg2d: Sum(rhs),rhsMax =  -5.89795434713380E-11  9.82534453943487E-02
 cg2d: Sum(rhs),rhsMax =  -5.89210902290915E-11  9.83951000538186E-02
 cg2d: Sum(rhs),rhsMax =  -5.88753490404770E-11  9.85367689727094E-02
 cg2d: Sum(rhs),rhsMax =  -5.88292192738038E-11  9.86757999612017E-02
 cg2d: Sum(rhs),rhsMax =  -5.87682125186006E-11  9.88124168466662E-02
 cg2d: Sum(rhs),rhsMax =  -5.87370707627599E-11  9.89463658583526E-02
 cg2d: Sum(rhs),rhsMax =  -5.87131454565792E-11  9.90768844744505E-02
 cg2d: Sum(rhs),rhsMax =  -5.86695136917115E-11  9.91997964622987E-02
 cg2d: Sum(rhs),rhsMax =  -5.86671822233598E-11  9.93227640176951E-02
 cg2d: Sum(rhs),rhsMax =  -5.86528048351909E-11  9.94394792820827E-02
 cg2d: Sum(rhs),rhsMax =  -5.86413140268860E-11  9.95496586848267E-02
 cg2d: Sum(rhs),rhsMax =  -5.86593551510362E-11  9.96528027034490E-02
 cg2d: Sum(rhs),rhsMax =  -5.86516391010150E-11  9.97488928276634E-02
 cg2d: Sum(rhs),rhsMax =  -5.86636295096810E-11  9.98367029500374E-02
 cg2d: Sum(rhs),rhsMax =  -5.86718451600632E-11  9.99162429309757E-02
 cg2d: Sum(rhs),rhsMax =  -5.86685144909893E-11  9.99861396519756E-02
 cg2d: Sum(rhs),rhsMax =  -5.87044857169872E-11  1.00048522755907E-01
 cg2d: Sum(rhs),rhsMax =  -5.87437321009077E-11  1.00099672962912E-01
 cg2d: Sum(rhs),rhsMax =  -5.87828397069501E-11  1.00138737238122E-01
 cg2d: Sum(rhs),rhsMax =  -5.88182835770112E-11  1.00168678899182E-01
 cg2d: Sum(rhs),rhsMax =  -5.88780413313117E-11  1.00185201492600E-01
 cg2d: Sum(rhs),rhsMax =  -5.89278625895417E-11  1.00194443985229E-01
 cg2d: Sum(rhs),rhsMax =  -5.89976401066394E-11  1.00193300930877E-01
 cg2d: Sum(rhs),rhsMax =  -5.90713589154745E-11  1.00181614619663E-01
 cg2d: Sum(rhs),rhsMax =  -5.91403037653038E-11  1.00160312103412E-01
 cg2d: Sum(rhs),rhsMax =  -5.92115800834847E-11  1.00134719773340E-01
 cg2d: Sum(rhs),rhsMax =  -5.92939308763363E-11  1.00095807708888E-01
 cg2d: Sum(rhs),rhsMax =  -5.93831372963649E-11  1.00048641282641E-01
 cg2d: Sum(rhs),rhsMax =  -5.94933546871346E-11  9.99915802335225E-02
 cg2d: Sum(rhs),rhsMax =  -5.96113575168644E-11  9.99212644118302E-02
 cg2d: Sum(rhs),rhsMax =  -5.97205895846997E-11  9.98490788002751E-02
 cg2d: Sum(rhs),rhsMax =  -5.98585486732972E-11  9.97652765833041E-02
 cg2d: Sum(rhs),rhsMax =  -5.99820887403624E-11  9.96694556962572E-02
 cg2d: Sum(rhs),rhsMax =  -6.01139277245366E-11  9.95659025769900E-02
 cg2d: Sum(rhs),rhsMax =  -6.02496177948275E-11  9.94622416521270E-02
 cg2d: Sum(rhs),rhsMax =  -6.03877156613031E-11  9.93464562086082E-02
 cg2d: Sum(rhs),rhsMax =  -6.05332485525967E-11  9.92242902187596E-02
 cg2d: Sum(rhs),rhsMax =  -6.06955735671377E-11  9.90975016087559E-02
 cg2d: Sum(rhs),rhsMax =  -6.08405140503643E-11  9.89660966258380E-02
 cg2d: Sum(rhs),rhsMax =  -6.09960510919438E-11  9.88333227668160E-02
 cg2d: Sum(rhs),rhsMax =  -6.11508274572792E-11  9.86975204708493E-02
 cg2d: Sum(rhs),rhsMax =  -6.13097073109969E-11  9.85603628158714E-02
 cg2d: Sum(rhs),rhsMax =  -6.14593584358225E-11  9.84234779471348E-02
 cg2d: Sum(rhs),rhsMax =  -6.16404774445023E-11  9.82846064624411E-02
 cg2d: Sum(rhs),rhsMax =  -6.18065182367289E-11  9.81475312692667E-02
 cg2d: Sum(rhs),rhsMax =  -6.19600759588224E-11  9.80128209677173E-02
 cg2d: Sum(rhs),rhsMax =  -6.21360185526498E-11  9.78790771367107E-02
 cg2d: Sum(rhs),rhsMax =  -6.22964596574960E-11  9.77481425475819E-02
 cg2d: Sum(rhs),rhsMax =  -6.24544166383245E-11  9.76210637455553E-02
 cg2d: Sum(rhs),rhsMax =  -6.26153573435317E-11  9.74973869505785E-02
 cg2d: Sum(rhs),rhsMax =  -6.27661256302758E-11  9.73788157835219E-02
 cg2d: Sum(rhs),rhsMax =  -6.29100660454185E-11  9.72648607461413E-02
 cg2d: Sum(rhs),rhsMax =  -6.30684671154569E-11  9.71569193280088E-02
 cg2d: Sum(rhs),rhsMax =  -6.32261742961049E-11  9.70539531283305E-02
 cg2d: Sum(rhs),rhsMax =  -6.33495755852920E-11  9.69577227550757E-02
 cg2d: Sum(rhs),rhsMax =  -6.34687025158343E-11  9.68660611138638E-02
 cg2d: Sum(rhs),rhsMax =  -6.36251051844283E-11  9.67815436248724E-02
 cg2d: Sum(rhs),rhsMax =  -6.37461194941125E-11  9.67046806267424E-02
 cg2d: Sum(rhs),rhsMax =  -6.38882557968401E-11  9.66333604969341E-02
 cg2d: Sum(rhs),rhsMax =  -6.40092145953730E-11  9.65678489514325E-02
 cg2d: Sum(rhs),rhsMax =  -6.41280362145835E-11  9.65100109323642E-02
 cg2d: Sum(rhs),rhsMax =  -6.42295105990343E-11  9.64589864975414E-02
 cg2d: Sum(rhs),rhsMax =  -6.43420872137312E-11  9.64127861312596E-02
 cg2d: Sum(rhs),rhsMax =  -6.44435060870308E-11  9.63722784489822E-02
 cg2d: Sum(rhs),rhsMax =  -6.45488107409165E-11  9.63374262198849E-02
 cg2d: Sum(rhs),rhsMax =  -6.46095399403634E-11  9.63085605629639E-02
 cg2d: Sum(rhs),rhsMax =  -6.46810383031493E-11  9.62833296884414E-02
 cg2d: Sum(rhs),rhsMax =  -6.47516484875155E-11  9.62631150336352E-02
 cg2d: Sum(rhs),rhsMax =  -6.48365805488993E-11  9.62454995361993E-02
 cg2d: Sum(rhs),rhsMax =  -6.49107434469443E-11  9.62324546514490E-02
 cg2d: Sum(rhs),rhsMax =  -6.50006715119389E-11  9.62217688718875E-02
 cg2d: Sum(rhs),rhsMax =  -6.50645093358548E-11  9.62150339411612E-02
 cg2d: Sum(rhs),rhsMax =  -6.51163012399536E-11  9.62097443952347E-02
 cg2d: Sum(rhs),rhsMax =  -6.52073950391241E-11  9.62074706996005E-02
 cg2d: Sum(rhs),rhsMax =  -6.52761733554996E-11  9.62058786792098E-02
 cg2d: Sum(rhs),rhsMax =  -6.52962683922453E-11  9.62067727365789E-02
 cg2d: Sum(rhs),rhsMax =  -6.53659348870406E-11  9.62072150456115E-02
 cg2d: Sum(rhs),rhsMax =  -6.54363230268018E-11  9.62091057770678E-02
 cg2d: Sum(rhs),rhsMax =  -6.55256959802841E-11  9.62102427062103E-02
 cg2d: Sum(rhs),rhsMax =  -6.55798193527346E-11  9.62118006025370E-02
 cg2d: Sum(rhs),rhsMax =  -6.56301124557501E-11  9.62135980283304E-02
 cg2d: Sum(rhs),rhsMax =  -6.56594778547515E-11  9.62153304481188E-02
 cg2d: Sum(rhs),rhsMax =  -6.57645049528810E-11  9.62175479686198E-02
 cg2d: Sum(rhs),rhsMax =  -6.58861298852287E-11  9.62205145363079E-02
 cg2d: Sum(rhs),rhsMax =  -6.59961529869690E-11  9.62246620274706E-02
 cg2d: Sum(rhs),rhsMax =  -6.61355414877107E-11  9.62305312712925E-02
 cg2d: Sum(rhs),rhsMax =  -6.61901089493711E-11  9.62377432548238E-02
 cg2d: Sum(rhs),rhsMax =  -6.62901955550410E-11  9.62470924078823E-02
 cg2d: Sum(rhs),rhsMax =  -6.63555876911914E-11  9.62572088314206E-02
 cg2d: Sum(rhs),rhsMax =  -6.64703847519377E-11  9.62692685997301E-02
 cg2d: Sum(rhs),rhsMax =  -6.64905908109859E-11  9.62861729884350E-02
 cg2d: Sum(rhs),rhsMax =  -6.65719701586909E-11  9.63027234528391E-02
 cg2d: Sum(rhs),rhsMax =  -6.66584565323092E-11  9.63201860140419E-02
 cg2d: Sum(rhs),rhsMax =  -6.67136346166330E-11  9.63460173360167E-02
 cg2d: Sum(rhs),rhsMax =  -6.68031185924178E-11  9.63702087817816E-02
 cg2d: Sum(rhs),rhsMax =  -6.68283206550768E-11  9.63967395301598E-02
 cg2d: Sum(rhs),rhsMax =  -6.68978206164184E-11  9.64277235068977E-02
 cg2d: Sum(rhs),rhsMax =  -6.69354571769532E-11  9.64627847718559E-02
 cg2d: Sum(rhs),rhsMax =  -6.69720945367658E-11  9.65021387763881E-02
 cg2d: Sum(rhs),rhsMax =  -6.70283828441143E-11  9.65468732192494E-02
 cg2d: Sum(rhs),rhsMax =  -6.70131727886769E-11  9.66000762852244E-02
 cg2d: Sum(rhs),rhsMax =  -6.70495881038846E-11  9.66742171020478E-02
 cg2d: Sum(rhs),rhsMax =  -6.70595801111062E-11  9.67401828959166E-02
 cg2d: Sum(rhs),rhsMax =  -6.70519195722363E-11  9.68134490141547E-02
 cg2d: Sum(rhs),rhsMax =  -6.70327127139103E-11  9.68946449187802E-02
 cg2d: Sum(rhs),rhsMax =  -6.70014044246159E-11  9.69814520028823E-02
 cg2d: Sum(rhs),rhsMax =  -6.69959643317952E-11  9.70765103556353E-02
 cg2d: Sum(rhs),rhsMax =  -6.69858613022711E-11  9.71770578471443E-02
 cg2d: Sum(rhs),rhsMax =  -6.69876376591105E-11  9.72801210322356E-02
 cg2d: Sum(rhs),rhsMax =  -6.69638788863836E-11  9.73991298883502E-02
 cg2d: Sum(rhs),rhsMax =  -6.69285737942005E-11  9.75278142183768E-02
 cg2d: Sum(rhs),rhsMax =  -6.68813893156539E-11  9.76653052608671E-02
 cg2d: Sum(rhs),rhsMax =  -6.67960131650602E-11  9.78125623939949E-02
 cg2d: Sum(rhs),rhsMax =  -6.67546018462417E-11  9.79612021367847E-02
 cg2d: Sum(rhs),rhsMax =  -6.66893207323938E-11  9.81222235419902E-02
 cg2d: Sum(rhs),rhsMax =  -6.66344757149773E-11  9.82907190521580E-02
 cg2d: Sum(rhs),rhsMax =  -6.66047217379173E-11  9.84661125394941E-02
 cg2d: Sum(rhs),rhsMax =  -6.65341115535512E-11  9.86467459201274E-02
 cg2d: Sum(rhs),rhsMax =  -6.64207577827369E-11  9.88327870001786E-02
 cg2d: Sum(rhs),rhsMax =  -6.62752075442086E-11  9.90229097509729E-02
 cg2d: Sum(rhs),rhsMax =  -6.61775079180416E-11  9.92154312421821E-02
 cg2d: Sum(rhs),rhsMax =  -6.60120846873724E-11  9.94091830198692E-02
 cg2d: Sum(rhs),rhsMax =  -6.58771925898805E-11  9.96039869780205E-02
 cg2d: Sum(rhs),rhsMax =  -6.56921184116754E-11  9.97993238719349E-02
 cg2d: Sum(rhs),rhsMax =  -6.55532295112948E-11  9.99940525296533E-02
 cg2d: Sum(rhs),rhsMax =  -6.53656018201332E-11  1.00186434424048E-01
 cg2d: Sum(rhs),rhsMax =  -6.52432552428195E-11  1.00375663024087E-01
 cg2d: Sum(rhs),rhsMax =  -6.50698384063730E-11  1.00560290274938E-01
 cg2d: Sum(rhs),rhsMax =  -6.49362785765106E-11  1.00738140833856E-01
 cg2d: Sum(rhs),rhsMax =  -6.48047171480925E-11  1.00909242844825E-01
 cg2d: Sum(rhs),rhsMax =  -6.46663833592243E-11  1.01072033798237E-01
 cg2d: Sum(rhs),rhsMax =  -6.45592468373479E-11  1.01225352579615E-01
 cg2d: Sum(rhs),rhsMax =  -6.44085895729063E-11  1.01368582271822E-01
 cg2d: Sum(rhs),rhsMax =  -6.43017861179374E-11  1.01499852907625E-01
 cg2d: Sum(rhs),rhsMax =  -6.41838804327222E-11  1.01618913764074E-01
 cg2d: Sum(rhs),rhsMax =  -6.40717479072350E-11  1.01721940018191E-01
 cg2d: Sum(rhs),rhsMax =  -6.39591712925380E-11  1.01811559893659E-01
 cg2d: Sum(rhs),rhsMax =  -6.38726849189197E-11  1.01887305929318E-01
 cg2d: Sum(rhs),rhsMax =  -6.37941921510787E-11  1.01946333900048E-01
 cg2d: Sum(rhs),rhsMax =  -6.37312425055825E-11  1.01988468438317E-01
 cg2d: Sum(rhs),rhsMax =  -6.36584118751671E-11  1.02022758694647E-01
 cg2d: Sum(rhs),rhsMax =  -6.35708152785242E-11  1.02033483807400E-01
 cg2d: Sum(rhs),rhsMax =  -6.35144714600244E-11  1.02024495441666E-01
 cg2d: Sum(rhs),rhsMax =  -6.34504115915036E-11  1.01995237224749E-01
 cg2d: Sum(rhs),rhsMax =  -6.34259866849618E-11  1.01947449948007E-01
 cg2d: Sum(rhs),rhsMax =  -6.33931240834329E-11  1.01880749306284E-01
 cg2d: Sum(rhs),rhsMax =  -6.34005625776979E-11  1.01794848204721E-01
 cg2d: Sum(rhs),rhsMax =  -6.33701424668232E-11  1.01690591565408E-01
 cg2d: Sum(rhs),rhsMax =  -6.33770813607271E-11  1.01568055095842E-01
 cg2d: Sum(rhs),rhsMax =  -6.33952890183309E-11  1.01427901479631E-01
 cg2d: Sum(rhs),rhsMax =  -6.33988417320097E-11  1.01270399136528E-01
 cg2d: Sum(rhs),rhsMax =  -6.34396979393159E-11  1.01097326912845E-01
 cg2d: Sum(rhs),rhsMax =  -6.35149155492343E-11  1.00909303722711E-01
 cg2d: Sum(rhs),rhsMax =  -6.36060093484048E-11  1.00707427832800E-01
 cg2d: Sum(rhs),rhsMax =  -6.37049857310501E-11  1.00492366646449E-01
 cg2d: Sum(rhs),rhsMax =  -6.38180619461082E-11  1.00264450996289E-01
 cg2d: Sum(rhs),rhsMax =  -6.39270303359751E-11  1.00024300944418E-01
 cg2d: Sum(rhs),rhsMax =  -6.40346109470613E-11  9.97733170418322E-02
 cg2d: Sum(rhs),rhsMax =  -6.41911523935335E-11  9.95134610602308E-02
 cg2d: Sum(rhs),rhsMax =  -6.43246012010934E-11  9.92450722271798E-02
 cg2d: Sum(rhs),rhsMax =  -6.44575504082923E-11  9.89677909116228E-02
 cg2d: Sum(rhs),rhsMax =  -6.45819508982015E-11  9.86764702038160E-02
 cg2d: Sum(rhs),rhsMax =  -6.47054076985398E-11  9.83864308175477E-02
 cg2d: Sum(rhs),rhsMax =  -6.48572306971573E-11  9.80968151693064E-02
 cg2d: Sum(rhs),rhsMax =  -6.50103859634044E-11  9.78053934857316E-02
 cg2d: Sum(rhs),rhsMax =  -6.51884102254030E-11  9.75099799084845E-02
 cg2d: Sum(rhs),rhsMax =  -6.53324061516969E-11  9.72110084723261E-02
 cg2d: Sum(rhs),rhsMax =  -6.55089871237635E-11  9.69107894092984E-02
 cg2d: Sum(rhs),rhsMax =  -6.56563692302825E-11  9.66106516049627E-02
 cg2d: Sum(rhs),rhsMax =  -6.58175736134581E-11  9.63122746784132E-02
 cg2d: Sum(rhs),rhsMax =  -6.59837184890932E-11  9.60159771281956E-02
 cg2d: Sum(rhs),rhsMax =  -6.61062315998606E-11  9.57221116015696E-02
 cg2d: Sum(rhs),rhsMax =  -6.62610522006446E-11  9.54324286009628E-02
 cg2d: Sum(rhs),rhsMax =  -6.63881727369642E-11  9.51483252694211E-02
 cg2d: Sum(rhs),rhsMax =  -6.65077715122919E-11  9.48708556913678E-02
 cg2d: Sum(rhs),rhsMax =  -6.66756094780396E-11  9.46008645491485E-02
 cg2d: Sum(rhs),rhsMax =  -6.68083088850580E-11  9.43391879493549E-02
 cg2d: Sum(rhs),rhsMax =  -6.68823885163761E-11  9.41074050591306E-02
 cg2d: Sum(rhs),rhsMax =  -6.69986566226299E-11  9.38649784317367E-02
 cg2d: Sum(rhs),rhsMax =  -6.71040167876669E-11  9.36315947224749E-02
 cg2d: Sum(rhs),rhsMax =  -6.71990518785748E-11  9.34106839867270E-02
 cg2d: Sum(rhs),rhsMax =  -6.72726319095318E-11  9.31982016186430E-02
 cg2d: Sum(rhs),rhsMax =  -6.73413269591805E-11  9.29946349590287E-02
 cg2d: Sum(rhs),rhsMax =  -6.74187927707237E-11  9.28007500177279E-02
 cg2d: Sum(rhs),rhsMax =  -6.74812150602833E-11  9.26178261914254E-02
 cg2d: Sum(rhs),rhsMax =  -6.75441785835673E-11  9.24469831811464E-02
 cg2d: Sum(rhs),rhsMax =  -6.75964978436028E-11  9.22893779356405E-02
 cg2d: Sum(rhs),rhsMax =  -6.76281530775924E-11  9.21463450046950E-02
 cg2d: Sum(rhs),rhsMax =  -6.76397271526241E-11  9.20187799332099E-02
 cg2d: Sum(rhs),rhsMax =  -6.76467770688305E-11  9.19077198577675E-02
 cg2d: Sum(rhs),rhsMax =  -6.76539241295515E-11  9.18135847942533E-02
 cg2d: Sum(rhs),rhsMax =  -6.76432798663029E-11  9.17366082770222E-02
 cg2d: Sum(rhs),rhsMax =  -6.75874634037399E-11  9.17305279721885E-02
 cg2d: Sum(rhs),rhsMax =  -6.75562626673010E-11  9.16797311379661E-02
 cg2d: Sum(rhs),rhsMax =  -6.74916754428434E-11  9.16567273842037E-02
 cg2d: Sum(rhs),rhsMax =  -6.74457842006482E-11  9.16475155431912E-02
 cg2d: Sum(rhs),rhsMax =  -6.73701441855634E-11  9.16594531195369E-02
 cg2d: Sum(rhs),rhsMax =  -6.72707479998369E-11  9.16921077652525E-02
 cg2d: Sum(rhs),rhsMax =  -6.71765976179017E-11  9.17453416256138E-02
 cg2d: Sum(rhs),rhsMax =  -6.70449945561202E-11  9.18198542835492E-02
 cg2d: Sum(rhs),rhsMax =  -6.69151956067537E-11  9.19157972030352E-02
 cg2d: Sum(rhs),rhsMax =  -6.67568639256544E-11  9.20332906135351E-02
 cg2d: Sum(rhs),rhsMax =  -6.66018074024777E-11  9.21714919899335E-02
 cg2d: Sum(rhs),rhsMax =  -6.64532040506316E-11  9.23300121784816E-02
 cg2d: Sum(rhs),rhsMax =  -6.62622040570326E-11  9.25074258789173E-02
 cg2d: Sum(rhs),rhsMax =  -6.60569515753551E-11  9.27041353735967E-02
 cg2d: Sum(rhs),rhsMax =  -6.58404997189166E-11  9.29208184008881E-02
 cg2d: Sum(rhs),rhsMax =  -6.56208143379189E-11  9.31565104254517E-02
 cg2d: Sum(rhs),rhsMax =  -6.53707088460465E-11  9.34094134771834E-02
 cg2d: Sum(rhs),rhsMax =  -6.51381448779631E-11  9.36742096951870E-02
 cg2d: Sum(rhs),rhsMax =  -6.48974762818000E-11  9.39437308566327E-02
 cg2d: Sum(rhs),rhsMax =  -6.46568909523637E-11  9.42171880445429E-02
 cg2d: Sum(rhs),rhsMax =  -6.44114761527703E-11  9.44939436857509E-02
 cg2d: Sum(rhs),rhsMax =  -6.41580122362484E-11  9.47727187353626E-02
 cg2d: Sum(rhs),rhsMax =  -6.38953334686221E-11  9.50522042298144E-02
 cg2d: Sum(rhs),rhsMax =  -6.36564134737228E-11  9.53314631521723E-02
 cg2d: Sum(rhs),rhsMax =  -6.34115260300661E-11  9.56093392911867E-02
 cg2d: Sum(rhs),rhsMax =  -6.31615038049205E-11  9.58845069890944E-02
 cg2d: Sum(rhs),rhsMax =  -6.29036267518757E-11  9.61531407111526E-02
 cg2d: Sum(rhs),rhsMax =  -6.27016771836963E-11  9.64130435962040E-02
 cg2d: Sum(rhs),rhsMax =  -6.24938434334865E-11  9.66632155417648E-02
 cg2d: Sum(rhs),rhsMax =  -6.23051610304515E-11  9.69031558965625E-02
 cg2d: Sum(rhs),rhsMax =  -6.21139251144598E-11  9.71319166042416E-02
 cg2d: Sum(rhs),rhsMax =  -6.19164719495302E-11  9.73483484211417E-02
 cg2d: Sum(rhs),rhsMax =  -6.17458861817965E-11  9.75515269522404E-02
 cg2d: Sum(rhs),rhsMax =  -6.15717477003841E-11  9.77407591704759E-02
 cg2d: Sum(rhs),rhsMax =  -6.13556427886408E-11  9.79154508198279E-02
 cg2d: Sum(rhs),rhsMax =  -6.11808381734136E-11  9.80747093494893E-02
 cg2d: Sum(rhs),rhsMax =  -6.10103079168312E-11  9.82181822362706E-02
 cg2d: Sum(rhs),rhsMax =  -6.08496586451679E-11  9.83448028683329E-02
 cg2d: Sum(rhs),rhsMax =  -6.06943384440228E-11  9.84542658389143E-02
 cg2d: Sum(rhs),rhsMax =  -6.05706595990796E-11  9.85136543078397E-02
 cg2d: Sum(rhs),rhsMax =  -6.04454264419019E-11  9.85868821681450E-02
 cg2d: Sum(rhs),rhsMax =  -6.03253558217887E-11  9.86429841992981E-02
 cg2d: Sum(rhs),rhsMax =  -6.02060623577927E-11  9.86807269695935E-02
 cg2d: Sum(rhs),rhsMax =  -6.01168004266128E-11  9.87003100987536E-02
 cg2d: Sum(rhs),rhsMax =  -6.00439697961974E-11  9.87015483430052E-02
 cg2d: Sum(rhs),rhsMax =  -5.99685856528254E-11  9.86836070216553E-02
 cg2d: Sum(rhs),rhsMax =  -5.99178484606000E-11  9.86460693299877E-02
 cg2d: Sum(rhs),rhsMax =  -5.98889826619597E-11  9.85903495211386E-02
 cg2d: Sum(rhs),rhsMax =  -5.98329163992162E-11  9.85143045664100E-02
 cg2d: Sum(rhs),rhsMax =  -5.98097682491527E-11  9.84190035411779E-02
 cg2d: Sum(rhs),rhsMax =  -5.98058824685666E-11  9.83047795047625E-02
 cg2d: Sum(rhs),rhsMax =  -5.98304739085620E-11  9.81701626754830E-02
 cg2d: Sum(rhs),rhsMax =  -5.98754934522105E-11  9.80224003866397E-02
 cg2d: Sum(rhs),rhsMax =  -5.98905369741942E-11  9.78560884617031E-02
 cg2d: Sum(rhs),rhsMax =  -5.99638116938195E-11  9.76735544952893E-02
 cg2d: Sum(rhs),rhsMax =  -6.00141047968350E-11  9.74786540256734E-02
 cg2d: Sum(rhs),rhsMax =  -6.01281802126152E-11  9.72681442230314E-02
 cg2d: Sum(rhs),rhsMax =  -6.01833027857879E-11  9.70450083614853E-02
 cg2d: Sum(rhs),rhsMax =  -6.02844441033312E-11  9.68116046607364E-02
 cg2d: Sum(rhs),rhsMax =  -6.03938565824080E-11  9.65667466364514E-02
 cg2d: Sum(rhs),rhsMax =  -6.04909455859115E-11  9.63112582604949E-02
 cg2d: Sum(rhs),rhsMax =  -6.06324990215512E-11  9.60488159289805E-02
 cg2d: Sum(rhs),rhsMax =  -6.07632832938521E-11  9.57798101597257E-02
 cg2d: Sum(rhs),rhsMax =  -6.09194916734168E-11  9.55026638135817E-02
 cg2d: Sum(rhs),rhsMax =  -6.10544947932112E-11  9.52203947048796E-02
 cg2d: Sum(rhs),rhsMax =  -6.11657946514299E-11  9.49339022197962E-02
 cg2d: Sum(rhs),rhsMax =  -6.13062933751962E-11  9.46450882454818E-02
 cg2d: Sum(rhs),rhsMax =  -6.14730488734949E-11  9.43547284597949E-02
 cg2d: Sum(rhs),rhsMax =  -6.16416917509355E-11  9.40628885992451E-02
 cg2d: Sum(rhs),rhsMax =  -6.18165518773139E-11  9.37719606455897E-02
 cg2d: Sum(rhs),rhsMax =  -6.19880813346185E-11  9.34830095725708E-02
 cg2d: Sum(rhs),rhsMax =  -6.21205309414563E-11  9.32365494025623E-02
 cg2d: Sum(rhs),rhsMax =  -6.22675244699167E-11  9.29548533534897E-02
 cg2d: Sum(rhs),rhsMax =  -6.24321705444686E-11  9.26721774975142E-02
 cg2d: Sum(rhs),rhsMax =  -6.26126928082726E-11  9.23998093601178E-02
 cg2d: Sum(rhs),rhsMax =  -6.27581320244985E-11  9.21567161040632E-02
 cg2d: Sum(rhs),rhsMax =  -6.28613827657887E-11  9.19063738254802E-02
 cg2d: Sum(rhs),rhsMax =  -6.30435703641297E-11  9.16642582130603E-02
 cg2d: Sum(rhs),rhsMax =  -6.32072172379594E-11  9.14295353671019E-02
 cg2d: Sum(rhs),rhsMax =  -6.33780805614492E-11  9.12053905005908E-02
 cg2d: Sum(rhs),rhsMax =  -6.34761132545236E-11  9.09917532962761E-02
 cg2d: Sum(rhs),rhsMax =  -6.36920516328132E-11  9.07917965355678E-02
 cg2d: Sum(rhs),rhsMax =  -6.39163166837875E-11  9.06037490757012E-02
 cg2d: Sum(rhs),rhsMax =  -6.41597885930878E-11  9.04293478440653E-02
 cg2d: Sum(rhs),rhsMax =  -6.42993436272832E-11  9.02679256053978E-02
 cg2d: Sum(rhs),rhsMax =  -6.44455599996263E-11  9.01230323338927E-02
 cg2d: Sum(rhs),rhsMax =  -6.45667963539154E-11  8.99941135083867E-02
 cg2d: Sum(rhs),rhsMax =  -6.46767084333533E-11  8.98815478477909E-02
 cg2d: Sum(rhs),rhsMax =  -6.47785158847114E-11  8.97821723956025E-02
 cg2d: Sum(rhs),rhsMax =  -6.49008069508739E-11  8.97016158562921E-02
 cg2d: Sum(rhs),rhsMax =  -6.49691966891908E-11  8.96388424265726E-02
 cg2d: Sum(rhs),rhsMax =  -6.50529630163987E-11  8.95943748026382E-02
 cg2d: Sum(rhs),rhsMax =  -6.51149134611728E-11  8.95677671080330E-02
 cg2d: Sum(rhs),rhsMax =  -6.52096154851733E-11  8.95592340418385E-02
 cg2d: Sum(rhs),rhsMax =  -6.52833898051597E-11  8.95688547663888E-02
 cg2d: Sum(rhs),rhsMax =  -6.53186948973428E-11  8.95972345966681E-02
 cg2d: Sum(rhs),rhsMax =  -6.53326281963018E-11  8.96426951233918E-02
 cg2d: Sum(rhs),rhsMax =  -6.53188059196452E-11  8.96994997068029E-02
 cg2d: Sum(rhs),rhsMax =  -6.53683773776947E-11  8.97700430171030E-02
 cg2d: Sum(rhs),rhsMax =  -6.53675447104263E-11  8.98640612148983E-02
 cg2d: Sum(rhs),rhsMax =  -6.53685994222997E-11  8.99754567012296E-02
 cg2d: Sum(rhs),rhsMax =  -6.53743725820277E-11  9.01026925617148E-02
 cg2d: Sum(rhs),rhsMax =  -6.53665455097041E-11  9.02446740958689E-02
 cg2d: Sum(rhs),rhsMax =  -6.53317955290333E-11  9.04004372366888E-02
 cg2d: Sum(rhs),rhsMax =  -6.53013754181586E-11  9.05695777273483E-02
 cg2d: Sum(rhs),rhsMax =  -6.52978227044798E-11  9.07508134653208E-02
 cg2d: Sum(rhs),rhsMax =  -6.52559117853002E-11  9.09437380312043E-02
 cg2d: Sum(rhs),rhsMax =  -6.52232712283762E-11  9.11472774306907E-02
 cg2d: Sum(rhs),rhsMax =  -6.51786957739375E-11  9.13619098465457E-02
 cg2d: Sum(rhs),rhsMax =  -6.51390608119584E-11  9.15855579374080E-02
 cg2d: Sum(rhs),rhsMax =  -6.50654530254258E-11  9.18166823341199E-02
 cg2d: Sum(rhs),rhsMax =  -6.49262310581378E-11  9.20559118906210E-02
 cg2d: Sum(rhs),rhsMax =  -6.47862874458838E-11  9.22984704044215E-02
 cg2d: Sum(rhs),rhsMax =  -6.46629416678479E-11  9.25304791184265E-02
 cg2d: Sum(rhs),rhsMax =  -6.45182240965880E-11  9.27705253859153E-02
 cg2d: Sum(rhs),rhsMax =  -6.43691211443809E-11  9.30363760390065E-02
 cg2d: Sum(rhs),rhsMax =  -6.42264574857165E-11  9.32898623351835E-02
 cg2d: Sum(rhs),rhsMax =  -6.41259267908367E-11  9.35415102015602E-02
 cg2d: Sum(rhs),rhsMax =  -6.39955310965945E-11  9.37935883366568E-02
 cg2d: Sum(rhs),rhsMax =  -6.38747943426665E-11  9.40427134430634E-02
 cg2d: Sum(rhs),rhsMax =  -6.37581099027784E-11  9.42836391565995E-02
 cg2d: Sum(rhs),rhsMax =  -6.36621588778752E-11  9.45154457212326E-02
 cg2d: Sum(rhs),rhsMax =  -6.35653751857035E-11  9.47426447596226E-02
 cg2d: Sum(rhs),rhsMax =  -6.34761132545236E-11  9.49653841623486E-02
 cg2d: Sum(rhs),rhsMax =  -6.34169383673111E-11  9.51827596782686E-02
 cg2d: Sum(rhs),rhsMax =  -6.33482155620868E-11  9.53924310559031E-02
 cg2d: Sum(rhs),rhsMax =  -6.32913998988016E-11  9.55932412500093E-02
 cg2d: Sum(rhs),rhsMax =  -6.32326691007989E-11  9.57724795568184E-02
 cg2d: Sum(rhs),rhsMax =  -6.31684982099756E-11  9.59483072801995E-02
 cg2d: Sum(rhs),rhsMax =  -6.31250329785615E-11  9.61135565663622E-02
 cg2d: Sum(rhs),rhsMax =  -6.30794860789763E-11  9.62702834626379E-02
 cg2d: Sum(rhs),rhsMax =  -6.30318020000686E-11  9.64092115809502E-02
 cg2d: Sum(rhs),rhsMax =  -6.30096252951517E-11  9.65379844824580E-02
 cg2d: Sum(rhs),rhsMax =  -6.29890861691962E-11  9.66603163309332E-02
 cg2d: Sum(rhs),rhsMax =  -6.29831742315901E-11  9.67708319059667E-02
 cg2d: Sum(rhs),rhsMax =  -6.29873930790836E-11  9.68711657096259E-02
 cg2d: Sum(rhs),rhsMax =  -6.29752083813884E-11  9.69634911709559E-02
 cg2d: Sum(rhs),rhsMax =  -6.29855889666686E-11  9.70473953310941E-02
 cg2d: Sum(rhs),rhsMax =  -6.30022770065075E-11  9.71193928011779E-02
 cg2d: Sum(rhs),rhsMax =  -6.30245231003634E-11  9.71820043680132E-02
 cg2d: Sum(rhs),rhsMax =  -6.30503982357311E-11  9.72378642500334E-02
 cg2d: Sum(rhs),rhsMax =  -6.30898389086809E-11  9.72875353524865E-02
 cg2d: Sum(rhs),rhsMax =  -6.31188400157523E-11  9.73279539716845E-02
 cg2d: Sum(rhs),rhsMax =  -6.31777009180157E-11  9.73637829888941E-02
 cg2d: Sum(rhs),rhsMax =  -6.32188641713771E-11  9.73852236437419E-02
 cg2d: Sum(rhs),rhsMax =  -6.32862685867597E-11  9.74063204008775E-02
 cg2d: Sum(rhs),rhsMax =  -6.33476292255519E-11  9.74244005044674E-02
 cg2d: Sum(rhs),rhsMax =  -6.34029079238374E-11  9.74378882737919E-02
 cg2d: Sum(rhs),rhsMax =  -6.34772234775483E-11  9.74546211509743E-02
 cg2d: Sum(rhs),rhsMax =  -6.35253169511962E-11  9.74568697050002E-02
 cg2d: Sum(rhs),rhsMax =  -6.36232871942255E-11  9.74575097943722E-02
 cg2d: Sum(rhs),rhsMax =  -6.37042640860841E-11  9.74535869933145E-02
 cg2d: Sum(rhs),rhsMax =  -6.37889741028630E-11  9.74473826010114E-02
 cg2d: Sum(rhs),rhsMax =  -6.38550184950404E-11  9.74373248132798E-02
 cg2d: Sum(rhs),rhsMax =  -6.39319847062225E-11  9.74255135533759E-02
 cg2d: Sum(rhs),rhsMax =  -6.40218711378537E-11  9.74113358765318E-02
 cg2d: Sum(rhs),rhsMax =  -6.40997532830312E-11  9.73946830017583E-02
 cg2d: Sum(rhs),rhsMax =  -6.42073338941174E-11  9.73755982633010E-02
 cg2d: Sum(rhs),rhsMax =  -6.42669251149641E-11  9.73537197418597E-02
 cg2d: Sum(rhs),rhsMax =  -6.43322339843877E-11  9.73294275491216E-02
 cg2d: Sum(rhs),rhsMax =  -6.44342634803508E-11  9.73028627269768E-02
 cg2d: Sum(rhs),rhsMax =  -6.45081210670639E-11  9.72762067123110E-02
 cg2d: Sum(rhs),rhsMax =  -6.45850595226705E-11  9.72483513554055E-02
 cg2d: Sum(rhs),rhsMax =  -6.47016329402561E-11  9.72196181110490E-02
 cg2d: Sum(rhs),rhsMax =  -6.47352726979022E-11  9.71789807893647E-02
 cg2d: Sum(rhs),rhsMax =  -6.48139597547726E-11  9.71336672443388E-02
 cg2d: Sum(rhs),rhsMax =  -6.49172382516383E-11  9.70949007034517E-02
 cg2d: Sum(rhs),rhsMax =  -6.49987286216458E-11  9.70616270721601E-02
 cg2d: Sum(rhs),rhsMax =  -6.50940967794611E-11  9.70290907428420E-02
 cg2d: Sum(rhs),rhsMax =  -6.48290865434831E-11  9.75135165113589E-02
 cg2d: Sum(rhs),rhsMax =  -6.50060560936083E-11  9.73049438763961E-02
 cg2d: Sum(rhs),rhsMax =  -6.51490528191800E-11  9.72059376316207E-02
 cg2d: Sum(rhs),rhsMax =  -6.52312093230023E-11  9.71424040294790E-02
 cg2d: Sum(rhs),rhsMax =  -6.53371801107028E-11  9.70697689965074E-02
 cg2d: Sum(rhs),rhsMax =  -6.54516996156929E-11  9.69967327963288E-02
 cg2d: Sum(rhs),rhsMax =  -6.55783760628026E-11  9.69269579836511E-02
 cg2d: Sum(rhs),rhsMax =  -6.56918963670705E-11  9.68577034618462E-02
 cg2d: Sum(rhs),rhsMax =  -6.57909837720183E-11  9.67872603979711E-02
 cg2d: Sum(rhs),rhsMax =  -6.58880172643705E-11  9.67159632903535E-02
 cg2d: Sum(rhs),rhsMax =  -6.60067556168542E-11  9.66441944641419E-02
 cg2d: Sum(rhs),rhsMax =  -6.60976273714198E-11  9.65720206802125E-02
 cg2d: Sum(rhs),rhsMax =  -6.62277455099058E-11  9.64992713026047E-02
 cg2d: Sum(rhs),rhsMax =  -6.64029387031917E-11  9.62992761085322E-02
 cg2d: Sum(rhs),rhsMax =  -6.65178467862404E-11  9.62254308255954E-02
 cg2d: Sum(rhs),rhsMax =  -6.66371402502364E-11  9.61629843617667E-02
 cg2d: Sum(rhs),rhsMax =  -6.67449984170787E-11  9.61073443682391E-02
 cg2d: Sum(rhs),rhsMax =  -6.68272104320522E-11  9.60589964423408E-02
 cg2d: Sum(rhs),rhsMax =  -6.69312383294596E-11  9.60149590915008E-02
 cg2d: Sum(rhs),rhsMax =  -6.70042354933287E-11  9.59607996321906E-02
 cg2d: Sum(rhs),rhsMax =  -6.70657973600441E-11  9.59273692996997E-02
 cg2d: Sum(rhs),rhsMax =  -6.70979383166070E-11  9.58919624844190E-02
 cg2d: Sum(rhs),rhsMax =  -6.71829814002933E-11  9.58565065764714E-02
 cg2d: Sum(rhs),rhsMax =  -6.72680244839796E-11  9.58220927552717E-02
 cg2d: Sum(rhs),rhsMax =  -6.73180955423902E-11  9.57894877394361E-02
 cg2d: Sum(rhs),rhsMax =  -6.74210687279242E-11  9.57595737546573E-02
 cg2d: Sum(rhs),rhsMax =  -6.75459133070433E-11  9.57314414905083E-02
 cg2d: Sum(rhs),rhsMax =  -6.76445011116300E-11  9.57060662475632E-02
 cg2d: Sum(rhs),rhsMax =  -6.77348177546833E-11  9.56838243191816E-02
 cg2d: Sum(rhs),rhsMax =  -6.78230804851410E-11  9.56656949166261E-02
 cg2d: Sum(rhs),rhsMax =  -6.79052369889632E-11  9.56516147691134E-02
 cg2d: Sum(rhs),rhsMax =  -6.80433487332266E-11  9.56418888121355E-02
 cg2d: Sum(rhs),rhsMax =  -6.80931977470323E-11  9.56372668734149E-02
 cg2d: Sum(rhs),rhsMax =  -6.81696921134289E-11  9.56403946818899E-02
 cg2d: Sum(rhs),rhsMax =  -6.82121026329696E-11  9.56472659782833E-02
 cg2d: Sum(rhs),rhsMax =  -6.82803813489841E-11  9.56594771543479E-02
 cg2d: Sum(rhs),rhsMax =  -6.83364476117276E-11  9.56774303518772E-02
 cg2d: Sum(rhs),rhsMax =  -6.83253453814814E-11  9.57035804972124E-02
 cg2d: Sum(rhs),rhsMax =  -6.83850753802062E-11  9.57348650633717E-02
 cg2d: Sum(rhs),rhsMax =  -6.84140522011489E-11  9.57731113843301E-02
 cg2d: Sum(rhs),rhsMax =  -6.84069467737913E-11  9.58180808120701E-02
 cg2d: Sum(rhs),rhsMax =  -6.84253764760001E-11  9.58699431967707E-02
 cg2d: Sum(rhs),rhsMax =  -6.84426959551843E-11  9.59290866408852E-02
 cg2d: Sum(rhs),rhsMax =  -6.84952095042490E-11  9.59947803371003E-02
 cg2d: Sum(rhs),rhsMax =  -6.85171919201366E-11  9.60672890262625E-02
 cg2d: Sum(rhs),rhsMax =  -6.85533851907394E-11  9.61467018800090E-02
 cg2d: Sum(rhs),rhsMax =  -6.85284051726853E-11  9.62354419156256E-02
 cg2d: Sum(rhs),rhsMax =  -6.85393963806291E-11  9.63272304504041E-02
 cg2d: Sum(rhs),rhsMax =  -6.85120848942233E-11  9.64253625966520E-02
 cg2d: Sum(rhs),rhsMax =  -6.84855505639348E-11  9.65297297836355E-02
 cg2d: Sum(rhs),rhsMax =  -6.84485801372148E-11  9.66398187281026E-02
 cg2d: Sum(rhs),rhsMax =  -6.84275969220494E-11  9.67551306069207E-02
 cg2d: Sum(rhs),rhsMax =  -6.83150203073524E-11  9.68749635584887E-02
 cg2d: Sum(rhs),rhsMax =  -6.82279788222218E-11  9.69987415066158E-02
 cg2d: Sum(rhs),rhsMax =  -6.81247280809316E-11  9.71257384688377E-02
 cg2d: Sum(rhs),rhsMax =  -6.80716594203545E-11  9.72557826005571E-02
 cg2d: Sum(rhs),rhsMax =  -6.79457601293620E-11  9.73880905111815E-02
 cg2d: Sum(rhs),rhsMax =  -6.78154199462710E-11  9.75209954424499E-02
 cg2d: Sum(rhs),rhsMax =  -6.76599887228235E-11  9.76553098437520E-02
 cg2d: Sum(rhs),rhsMax =  -6.75599576283048E-11  9.77915740679397E-02
 cg2d: Sum(rhs),rhsMax =  -6.74102995645853E-11  9.79267957862968E-02
 cg2d: Sum(rhs),rhsMax =  -6.72792932476796E-11  9.80602932667858E-02
 cg2d: Sum(rhs),rhsMax =  -6.71340760760586E-11  9.81908130233617E-02
 cg2d: Sum(rhs),rhsMax =  -6.69791999641234E-11  9.83174707980955E-02
 cg2d: Sum(rhs),rhsMax =  -6.68303190565211E-11  9.84402395129305E-02
 cg2d: Sum(rhs),rhsMax =  -6.66693367179505E-11  9.85588781019447E-02
 cg2d: Sum(rhs),rhsMax =  -6.65840715896593E-11  9.86725677816243E-02
 cg2d: Sum(rhs),rhsMax =  -6.64379662396186E-11  9.87855286856257E-02
 cg2d: Sum(rhs),rhsMax =  -6.63420429702910E-11  9.88853359916740E-02
 cg2d: Sum(rhs),rhsMax =  -6.62404575635378E-11  9.89782491603446E-02
 cg2d: Sum(rhs),rhsMax =  -6.61772858734366E-11  9.90634844502176E-02
 cg2d: Sum(rhs),rhsMax =  -6.60903554106085E-11  9.91405108172322E-02
 cg2d: Sum(rhs),rhsMax =  -6.60057564161320E-11  9.92085957695361E-02
 cg2d: Sum(rhs),rhsMax =  -6.59140519942980E-11  9.92678771398543E-02
 cg2d: Sum(rhs),rhsMax =  -6.58576526646470E-11  9.93176444920910E-02
 cg2d: Sum(rhs),rhsMax =  -6.57648380197884E-11  9.93596885478667E-02
 cg2d: Sum(rhs),rhsMax =  -6.57173204743344E-11  9.93909402877186E-02
 cg2d: Sum(rhs),rhsMax =  -6.56107390639704E-11  9.94124608454048E-02
 cg2d: Sum(rhs),rhsMax =  -6.55608900501647E-11  9.94240743664727E-02
 cg2d: Sum(rhs),rhsMax =  -6.55174248187507E-11  9.94370440052756E-02
 cg2d: Sum(rhs),rhsMax =  -6.54284959544782E-11  9.94340392080732E-02
 cg2d: Sum(rhs),rhsMax =  -6.53744280931789E-11  9.94168167556607E-02
(PID.TID 0000.0001)      cg2d_init_res =   3.73546122829619E-02
(PID.TID 0000.0001)      cg2d_iters(min,last) =      -1      37
(PID.TID 0000.0001)      cg2d_last_res =   7.79268496572990E-14
(PID.TID 0000.0001) // =======================================================
(PID.TID 0000.0001) // Begin MONITOR dynamic field statistics
(PID.TID 0000.0001) // =======================================================
(PID.TID 0000.0001) %MON time_tsnumber                =                  5760
(PID.TID 0000.0001) %MON time_secondsf                =   8.6400000000000E+04
(PID.TID 0000.0001) %MON dynstat_eta_max              =   1.2087740926324E-02
(PID.TID 0000.0001) %MON dynstat_eta_min              =  -1.6917963114795E-02
(PID.TID 0000.0001) %MON dynstat_eta_mean             =   1.4318150624456E-14
(PID.TID 0000.0001) %MON dynstat_eta_sd               =   9.1216555140143E-03
(PID.TID 0000.0001) %MON dynstat_eta_del2             =   6.8966822637089E-05
(PID.TID 0000.0001) %MON dynstat_uvel_max             =   1.2824415247512E+00
(PID.TID 0000.0001) %MON dynstat_uvel_min             =  -8.2017997841565E-01
(PID.TID 0000.0001) %MON dynstat_uvel_mean            =   4.5392047555248E-01
(PID.TID 0000.0001) %MON dynstat_uvel_sd              =   8.9253050098009E-02
(PID.TID 0000.0001) %MON dynstat_uvel_del2            =   1.0120870922963E-03
(PID.TID 0000.0001) %MON dynstat_vvel_max             =   0.0000000000000E+00
(PID.TID 0000.0001) %MON dynstat_vvel_min             =   0.0000000000000E+00
(PID.TID 0000.0001) %MON dynstat_vvel_mean            =   0.0000000000000E+00
(PID.TID 0000.0001) %MON dynstat_vvel_sd              =   0.0000000000000E+00
(PID.TID 0000.0001) %MON dynstat_vvel_del2            =   0.0000000000000E+00
(PID.TID 0000.0001) %MON dynstat_wvel_max             =   4.0773259950078E-02
(PID.TID 0000.0001) %MON dynstat_wvel_min             =  -7.3611512976776E-02
(PID.TID 0000.0001) %MON dynstat_wvel_mean            =   4.5713685864830E-20
(PID.TID 0000.0001) %MON dynstat_wvel_sd              =   5.0516332554204E-03
(PID.TID 0000.0001) %MON dynstat_wvel_del2            =   1.5817286769863E-04
(PID.TID 0000.0001) %MON dynstat_theta_max            =   1.5000000000010E+01
(PID.TID 0000.0001) %MON dynstat_theta_min            =   9.9999999999950E+00
(PID.TID 0000.0001) %MON dynstat_theta_mean           =   1.1003628425167E+01
(PID.TID 0000.0001) %MON dynstat_theta_sd             =   1.8685265736972E+00
(PID.TID 0000.0001) %MON dynstat_theta_del2           =   6.7244403235708E-04
(PID.TID 0000.0001) %MON dynstat_salt_max             =   3.5000000000000E+01
(PID.TID 0000.0001) %MON dynstat_salt_min             =   3.5000000000000E+01
(PID.TID 0000.0001) %MON dynstat_salt_mean            =   3.5000000000000E+01
(PID.TID 0000.0001) %MON dynstat_salt_sd              =   4.0500935938326E-13
(PID.TID 0000.0001) %MON dynstat_salt_del2            =   0.0000000000000E+00
(PID.TID 0000.0001) %MON dynstat_sst_max              =   1.5000000000010E+01
(PID.TID 0000.0001) %MON dynstat_sst_min              =   1.4998542969352E+01
(PID.TID 0000.0001) %MON dynstat_sst_mean             =   1.4999992056097E+01
(PID.TID 0000.0001) %MON dynstat_sst_sd               =   9.2107693239867E-05
(PID.TID 0000.0001) %MON dynstat_sst_del2             =   8.7009049266410E-06
(PID.TID 0000.0001) %MON dynstat_sss_max              =   3.5000000000000E+01
(PID.TID 0000.0001) %MON dynstat_sss_min              =   3.5000000000000E+01
(PID.TID 0000.0001) %MON dynstat_sss_mean             =   3.5000000000000E+01
(PID.TID 0000.0001) %MON dynstat_sss_sd               =   4.2632564145606E-14
(PID.TID 0000.0001) %MON dynstat_sss_del2             =   0.0000000000000E+00
(PID.TID 0000.0001) %MON forcing_qnet_max             =   0.0000000000000E+00
(PID.TID 0000.0001) %MON forcing_qnet_min             =   0.0000000000000E+00
(PID.TID 0000.0001) %MON forcing_qnet_mean            =   0.0000000000000E+00
(PID.TID 0000.0001) %MON forcing_qnet_sd              =   0.0000000000000E+00
(PID.TID 0000.0001) %MON forcing_qnet_del2            =   0.0000000000000E+00
(PID.TID 0000.0001) %MON forcing_qsw_max              =   0.0000000000000E+00
(PID.TID 0000.0001) %MON forcing_qsw_min              =   0.0000000000000E+00
(PID.TID 0000.0001) %MON forcing_qsw_mean             =   0.0000000000000E+00
(PID.TID 0000.0001) %MON forcing_qsw_sd               =   0.0000000000000E+00
(PID.TID 0000.0001) %MON forcing_qsw_del2             =   0.0000000000000E+00
(PID.TID 0000.0001) %MON forcing_empmr_max            =   0.0000000000000E+00
(PID.TID 0000.0001) %MON forcing_empmr_min            =   0.0000000000000E+00
(PID.TID 0000.0001) %MON forcing_empmr_mean           =   0.0000000000000E+00
(PID.TID 0000.0001) %MON forcing_empmr_sd             =   0.0000000000000E+00
(PID.TID 0000.0001) %MON forcing_empmr_del2           =   0.0000000000000E+00
(PID.TID 0000.0001) %MON forcing_fu_max               =   0.0000000000000E+00
(PID.TID 0000.0001) %MON forcing_fu_min               =   0.0000000000000E+00
(PID.TID 0000.0001) %MON forcing_fu_mean              =   0.0000000000000E+00
(PID.TID 0000.0001) %MON forcing_fu_sd                =   0.0000000000000E+00
(PID.TID 0000.0001) %MON forcing_fu_del2              =   0.0000000000000E+00
(PID.TID 0000.0001) %MON forcing_fv_max               =   0.0000000000000E+00
(PID.TID 0000.0001) %MON forcing_fv_min               =   0.0000000000000E+00
(PID.TID 0000.0001) %MON forcing_fv_mean              =   0.0000000000000E+00
(PID.TID 0000.0001) %MON forcing_fv_sd                =   0.0000000000000E+00
(PID.TID 0000.0001) %MON forcing_fv_del2              =   0.0000000000000E+00
(PID.TID 0000.0001) %MON advcfl_uvel_max              =   8.0151914220608E-02
(PID.TID 0000.0001) %MON advcfl_vvel_max              =   0.0000000000000E+00
(PID.TID 0000.0001) %MON advcfl_wvel_max              =   4.6636044520676E-01
(PID.TID 0000.0001) %MON advcfl_W_hf_max              =   4.7143416898671E-01
(PID.TID 0000.0001) %MON pe_b_mean                    =   2.0622010067036E-06
(PID.TID 0000.0001) %MON ke_max                       =   5.4122682960728E-01
(PID.TID 0000.0001) %MON ke_mean                      =   1.0704902914281E-01
(PID.TID 0000.0001) %MON ke_vol                       =   9.6656886657870E+10
(PID.TID 0000.0001) %MON vort_r_min                   =   0.0000000000000E+00
(PID.TID 0000.0001) %MON vort_r_max                   =   0.0000000000000E+00
(PID.TID 0000.0001) %MON vort_a_mean                  =   0.0000000000000E+00
(PID.TID 0000.0001) %MON vort_a_sd                    =   0.0000000000000E+00
(PID.TID 0000.0001) %MON vort_p_mean                  =   0.0000000000000E+00
(PID.TID 0000.0001) %MON vort_p_sd                    =   0.0000000000000E+00
(PID.TID 0000.0001) %MON surfExpan_theta_mean         =  -1.0731423980446E-11
(PID.TID 0000.0001) %MON surfExpan_salt_mean          =   2.1438399767617E-18
(PID.TID 0000.0001) // =======================================================
(PID.TID 0000.0001) // End MONITOR dynamic field statistics
(PID.TID 0000.0001) // =======================================================
(PID.TID 0000.0001) // =======================================================
(PID.TID 0000.0001) // Begin OBCS MONITOR field statistics
(PID.TID 0000.0001) // =======================================================
(PID.TID 0000.0001) %MON obc_E_uVel_max               =   4.4822851314926E-01
(PID.TID 0000.0001) %MON obc_E_uVel_min               =   4.4822851314926E-01
(PID.TID 0000.0001) %MON obc_E_uVel_mean              =   4.4822851314926E-01
(PID.TID 0000.0001) %MON obc_E_uVel_sd                =  -1.9428902930940E-16
(PID.TID 0000.0001) %MON obc_E_uVel_Int               =   4.4822851314926E+05
(PID.TID 0000.0001) %MON obc_W_uVel_max               =   4.4822851314926E-01
(PID.TID 0000.0001) %MON obc_W_uVel_min               =   4.4822851314926E-01
(PID.TID 0000.0001) %MON obc_W_uVel_mean              =   4.4822851314926E-01
(PID.TID 0000.0001) %MON obc_W_uVel_sd                =  -1.9428902930940E-16
(PID.TID 0000.0001) %MON obc_W_uVel_Int               =   4.4822851314926E+05
(PID.TID 0000.0001) // =======================================================
(PID.TID 0000.0001) // End OBCS MONITOR field statistics
(PID.TID 0000.0001) // =======================================================
(PID.TID 0000.0001) %CHECKPOINT      5760 0000005760
 cg2d: Sum(rhs),rhsMax =  -6.53364029545855E-11  9.93907275021167E-02
 cg2d: Sum(rhs),rhsMax =  -6.53117560034389E-11  9.93541450165939E-02
 cg2d: Sum(rhs),rhsMax =  -6.52612963669696E-11  9.93081553855354E-02
 cg2d: Sum(rhs),rhsMax =  -6.52289888769531E-11  9.92529107500225E-02
 cg2d: Sum(rhs),rhsMax =  -6.51881881807981E-11  9.91891556141745E-02
 cg2d: Sum(rhs),rhsMax =  -6.51670384321790E-11  9.91171561356445E-02
 cg2d: Sum(rhs),rhsMax =  -6.51741993706878E-11  9.90519511261032E-02
 cg2d: Sum(rhs),rhsMax =  -6.51307341392737E-11  9.89710273538516E-02
 cg2d: Sum(rhs),rhsMax =  -6.50769438337306E-11  9.88820171092567E-02
 cg2d: Sum(rhs),rhsMax =  -6.50841047722395E-11  9.87862126825349E-02
 cg2d: Sum(rhs),rhsMax =  -6.50656750700307E-11  9.86824583694300E-02
 cg2d: Sum(rhs),rhsMax =  -6.50637321797376E-11  9.85751243569344E-02
 cg2d: Sum(rhs),rhsMax =  -6.50355880260634E-11  9.84606962962844E-02
 cg2d: Sum(rhs),rhsMax =  -6.49888476367266E-11  9.83437283831218E-02
 cg2d: Sum(rhs),rhsMax =  -6.49502118754697E-11  9.82228445019844E-02
 cg2d: Sum(rhs),rhsMax =  -6.49420517362387E-11  9.80987419088044E-02
 cg2d: Sum(rhs),rhsMax =  -6.49004738839665E-11  9.79726270495727E-02
 cg2d: Sum(rhs),rhsMax =  -6.48612275000460E-11  9.78446475795204E-02
 cg2d: Sum(rhs),rhsMax =  -6.49074682890216E-11  9.77156603859889E-02
 cg2d: Sum(rhs),rhsMax =  -6.49451603607076E-11  9.75858138195367E-02
 cg2d: Sum(rhs),rhsMax =  -6.49846843003843E-11  9.74528291511925E-02
 cg2d: Sum(rhs),rhsMax =  -6.50445808325628E-11  9.73210663835805E-02
 cg2d: Sum(rhs),rhsMax =  -6.50470788343682E-11  9.71901723881073E-02
 cg2d: Sum(rhs),rhsMax =  -6.50740017427154E-11  9.70605783270030E-02
 cg2d: Sum(rhs),rhsMax =  -6.51249609795457E-11  9.69333478741183E-02
 cg2d: Sum(rhs),rhsMax =  -6.51533826889761E-11  9.68091687003164E-02
 cg2d: Sum(rhs),rhsMax =  -6.51859677347488E-11  9.66888871644503E-02
 cg2d: Sum(rhs),rhsMax =  -6.51922960059892E-11  9.65721662370475E-02
 cg2d: Sum(rhs),rhsMax =  -6.52001230783128E-11  9.64585515834861E-02
 cg2d: Sum(rhs),rhsMax =  -6.52135290213351E-11  9.63485899424252E-02
 cg2d: Sum(rhs),rhsMax =  -6.52478626683717E-11  9.62429629043674E-02
 cg2d: Sum(rhs),rhsMax =  -6.52781717569439E-11  9.61415006107788E-02
 cg2d: Sum(rhs),rhsMax =  -6.52690124169908E-11  9.60431458632265E-02
 cg2d: Sum(rhs),rhsMax =  -6.52639053910775E-11  9.59479460092358E-02
 cg2d: Sum(rhs),rhsMax =  -6.52644049914386E-11  9.58562732360745E-02
 cg2d: Sum(rhs),rhsMax =  -6.52779219567634E-11  9.57582053351891E-02
 cg2d: Sum(rhs),rhsMax =  -6.52650988808290E-11  9.56678912780346E-02
 cg2d: Sum(rhs),rhsMax =  -6.52601306327938E-11  9.55821390700374E-02
 cg2d: Sum(rhs),rhsMax =  -6.52447262883271E-11  9.55000519825435E-02
 cg2d: Sum(rhs),rhsMax =  -6.52428111536096E-11  9.54221892119593E-02
 cg2d: Sum(rhs),rhsMax =  -6.52304044113095E-11  9.53476725772077E-02
 cg2d: Sum(rhs),rhsMax =  -6.51887155367348E-11  9.53309130690477E-02
 cg2d: Sum(rhs),rhsMax =  -6.51805970308672E-11  9.52521037431796E-02
 cg2d: Sum(rhs),rhsMax =  -6.51658726980031E-11  9.51836262207008E-02
 cg2d: Sum(rhs),rhsMax =  -6.51550896568764E-11  9.51216705528605E-02
 cg2d: Sum(rhs),rhsMax =  -6.51436821152984E-11  9.50628378320668E-02
 cg2d: Sum(rhs),rhsMax =  -6.51235523840832E-11  9.50070837702604E-02
 cg2d: Sum(rhs),rhsMax =  -6.50900167098456E-11  9.49550877519675E-02
 cg2d: Sum(rhs),rhsMax =  -6.50552493819401E-11  9.49065264979502E-02
 cg2d: Sum(rhs),rhsMax =  -6.50192157058971E-11  9.48610544460519E-02
 cg2d: Sum(rhs),rhsMax =  -6.49853929349242E-11  9.48228348722323E-02
 cg2d: Sum(rhs),rhsMax =  -6.49603721508685E-11  9.47884184438874E-02
 cg2d: Sum(rhs),rhsMax =  -6.49259777885103E-11  9.47546019825332E-02
 cg2d: Sum(rhs),rhsMax =  -6.48915157719365E-11  9.47211703175987E-02
 cg2d: Sum(rhs),rhsMax =  -6.48594511432066E-11  9.46922692839577E-02
 cg2d: Sum(rhs),rhsMax =  -6.48157777449754E-11  9.46683298149082E-02
 cg2d: Sum(rhs),rhsMax =  -6.47910960993592E-11  9.46482687677166E-02
 cg2d: Sum(rhs),rhsMax =  -6.47128461928048E-11  9.46320734561749E-02
 cg2d: Sum(rhs),rhsMax =  -6.46654119140777E-11  9.46201081951419E-02
 cg2d: Sum(rhs),rhsMax =  -6.45966474754900E-11  9.46127896563685E-02
 cg2d: Sum(rhs),rhsMax =  -6.45470343840771E-11  9.46105550778922E-02
 cg2d: Sum(rhs),rhsMax =  -6.44825304263463E-11  9.46126362462625E-02
 cg2d: Sum(rhs),rhsMax =  -6.44175268682545E-11  9.46185268962350E-02
 cg2d: Sum(rhs),rhsMax =  -6.43559372459634E-11  9.46285470787919E-02
 cg2d: Sum(rhs),rhsMax =  -6.42707831399747E-11  9.46434251903172E-02
 cg2d: Sum(rhs),rhsMax =  -6.42069453160587E-11  9.46628826545770E-02
 cg2d: Sum(rhs),rhsMax =  -6.41856012784103E-11  9.46386237480561E-02
 cg2d: Sum(rhs),rhsMax =  -6.41182384963912E-11  9.46599069515416E-02
 cg2d: Sum(rhs),rhsMax =  -6.40336950130660E-11  9.46907461158164E-02
 cg2d: Sum(rhs),rhsMax =  -6.37362940203445E-11  9.50472748881564E-02
 cg2d: Sum(rhs),rhsMax =  -6.37105368461732E-11  9.49938610193953E-02
 cg2d: Sum(rhs),rhsMax =  -6.36541930276735E-11  9.50097579201081E-02
 cg2d: Sum(rhs),rhsMax =  -6.35715646790658E-11  9.50496332973133E-02
 cg2d: Sum(rhs),rhsMax =  -6.34643171348870E-11  9.51012905555210E-02
 cg2d: Sum(rhs),rhsMax =  -6.33823826756696E-11  9.51575471255127E-02
 cg2d: Sum(rhs),rhsMax =  -6.32922603216457E-11  9.52214167369837E-02
 cg2d: Sum(rhs),rhsMax =  -6.32245922282948E-11  9.52901014726719E-02
 cg2d: Sum(rhs),rhsMax =  -6.31453778154878E-11  9.53627391051911E-02
 cg2d: Sum(rhs),rhsMax =  -6.30726026962236E-11  9.54324355865550E-02
 cg2d: Sum(rhs),rhsMax =  -6.29706287114118E-11  9.55065060889213E-02
 cg2d: Sum(rhs),rhsMax =  -6.28229135379854E-11  9.55831797871330E-02
 cg2d: Sum(rhs),rhsMax =  -6.26628193778345E-11  9.56621500542158E-02
 cg2d: Sum(rhs),rhsMax =  -6.24922336101008E-11  9.57428635878368E-02
 cg2d: Sum(rhs),rhsMax =  -6.23701645885433E-11  9.58245947228665E-02
 cg2d: Sum(rhs),rhsMax =  -6.22453200094242E-11  9.59083385746829E-02
 cg2d: Sum(rhs),rhsMax =  -6.20980489252076E-11  9.59876865940304E-02
 cg2d: Sum(rhs),rhsMax =  -6.19630458054132E-11  9.60658335063177E-02
 cg2d: Sum(rhs),rhsMax =  -6.18438633637197E-11  9.61413608038761E-02
 cg2d: Sum(rhs),rhsMax =  -6.16994788593672E-11  9.62151379348480E-02
 cg2d: Sum(rhs),rhsMax =  -6.15902884248953E-11  9.62863779724954E-02
 cg2d: Sum(rhs),rhsMax =  -6.14670536691619E-11  9.63550168703169E-02
 cg2d: Sum(rhs),rhsMax =  -6.13638029278718E-11  9.64197088487992E-02
 cg2d: Sum(rhs),rhsMax =  -6.12465633764714E-11  9.64804156156564E-02
 cg2d: Sum(rhs),rhsMax =  -6.11413697448882E-11  9.65363776420608E-02
 cg2d: Sum(rhs),rhsMax =  -6.10289041524936E-11  9.65875657971837E-02
 cg2d: Sum(rhs),rhsMax =  -6.09356454184251E-11  9.66336612411863E-02
 cg2d: Sum(rhs),rhsMax =  -6.08829098247554E-11  9.66759893347740E-02
 cg2d: Sum(rhs),rhsMax =  -6.08071371033247E-11  9.67131043263745E-02
 cg2d: Sum(rhs),rhsMax =  -6.07336958502458E-11  9.67444332323526E-02
 cg2d: Sum(rhs),rhsMax =  -6.06635297550895E-11  9.67695549658453E-02
 cg2d: Sum(rhs),rhsMax =  -6.05974714851243E-11  9.67883767281539E-02
 cg2d: Sum(rhs),rhsMax =  -6.05527850083831E-11  9.68002785671667E-02
 cg2d: Sum(rhs),rhsMax =  -6.05067662640124E-11  9.68070158594464E-02
 cg2d: Sum(rhs),rhsMax =  -6.04742367293909E-11  9.68076751517048E-02
 cg2d: Sum(rhs),rhsMax =  -6.04359340350413E-11  9.68022794995328E-02
 cg2d: Sum(rhs),rhsMax =  -6.03828653744642E-11  9.67904805802467E-02
 cg2d: Sum(rhs),rhsMax =  -6.03659344733387E-11  9.67724883058052E-02
 cg2d: Sum(rhs),rhsMax =  -6.03687100309003E-11  9.67478464897044E-02
 cg2d: Sum(rhs),rhsMax =  -6.03771477258874E-11  9.67167789507502E-02
 cg2d: Sum(rhs),rhsMax =  -6.03780359043071E-11  9.66801354910177E-02
 cg2d: Sum(rhs),rhsMax =  -6.03810335064736E-11  9.66380452792760E-02
 cg2d: Sum(rhs),rhsMax =  -6.03713745661594E-11  9.65907498190029E-02
 cg2d: Sum(rhs),rhsMax =  -6.03901373352755E-11  9.65375342146447E-02
 cg2d: Sum(rhs),rhsMax =  -6.04161165540518E-11  9.64790242730733E-02
 cg2d: Sum(rhs),rhsMax =  -6.04429839512477E-11  9.64157460406714E-02
 cg2d: Sum(rhs),rhsMax =  -6.04559180494846E-11  9.63489941653087E-02
 cg2d: Sum(rhs),rhsMax =  -6.04974959017568E-11  9.62793599436834E-02
 cg2d: Sum(rhs),rhsMax =  -6.05432370903713E-11  9.62069140912415E-02
 cg2d: Sum(rhs),rhsMax =  -6.05704930656259E-11  9.61317255433880E-02
 cg2d: Sum(rhs),rhsMax =  -6.05746008908170E-11  9.60537048414502E-02
 cg2d: Sum(rhs),rhsMax =  -6.06504291233989E-11  9.59736993541845E-02
 cg2d: Sum(rhs),rhsMax =  -6.07158212595493E-11  9.58910084326678E-02
 cg2d: Sum(rhs),rhsMax =  -6.07921490924923E-11  9.58064264133951E-02
 cg2d: Sum(rhs),rhsMax =  -6.08565975390718E-11  9.57200359025359E-02
 cg2d: Sum(rhs),rhsMax =  -6.09224892755833E-11  9.56320669727568E-02
 cg2d: Sum(rhs),rhsMax =  -6.09174377608213E-11  9.55429407207948E-02
 cg2d: Sum(rhs),rhsMax =  -6.08973427240755E-11  9.54519819269291E-02
 cg2d: Sum(rhs),rhsMax =  -6.10164696546178E-11  9.53582567672796E-02
 cg2d: Sum(rhs),rhsMax =  -6.11484196610945E-11  9.52646543901333E-02
 cg2d: Sum(rhs),rhsMax =  -6.13025186169125E-11  9.51713532288547E-02
 cg2d: Sum(rhs),rhsMax =  -6.14570061507891E-11  9.50776894813078E-02
 cg2d: Sum(rhs),rhsMax =  -6.15932305159106E-11  9.49839113882566E-02
 cg2d: Sum(rhs),rhsMax =  -6.17287887472173E-11  9.48902279311158E-02
 cg2d: Sum(rhs),rhsMax =  -6.18557982612344E-11  9.47967153592364E-02
 cg2d: Sum(rhs),rhsMax =  -6.19724827011225E-11  9.47035370557535E-02
 cg2d: Sum(rhs),rhsMax =  -6.20844486931560E-11  9.46108700643618E-02
 cg2d: Sum(rhs),rhsMax =  -6.21669937750369E-11  9.45187285197767E-02
 cg2d: Sum(rhs),rhsMax =  -6.23207596639475E-11  9.43699805486054E-02
 cg2d: Sum(rhs),rhsMax =  -6.24487683786867E-11  9.42748012861144E-02
 cg2d: Sum(rhs),rhsMax =  -6.25932639053417E-11  9.41584831102950E-02
 cg2d: Sum(rhs),rhsMax =  -6.27290441812534E-11  9.40818072538679E-02
 cg2d: Sum(rhs),rhsMax =  -6.28556651172119E-11  9.40068297700204E-02
 cg2d: Sum(rhs),rhsMax =  -6.29588048361995E-11  9.39330924811982E-02
 cg2d: Sum(rhs),rhsMax =  -6.30724916739211E-11  9.38609018360203E-02
 cg2d: Sum(rhs),rhsMax =  -6.31850682886181E-11  9.37910559285390E-02
 cg2d: Sum(rhs),rhsMax =  -6.33411656458804E-11  9.37223018093500E-02
 cg2d: Sum(rhs),rhsMax =  -6.34590158199444E-11  9.36589926930390E-02
 cg2d: Sum(rhs),rhsMax =  -6.35924646275043E-11  9.35941757840273E-02
 cg2d: Sum(rhs),rhsMax =  -6.37515040757819E-11  9.35317586623667E-02
 cg2d: Sum(rhs),rhsMax =  -6.38832320376537E-11  9.34722093906437E-02
 cg2d: Sum(rhs),rhsMax =  -6.40285602315771E-11  9.34153505252769E-02
 cg2d: Sum(rhs),rhsMax =  -6.41520170319154E-11  9.33610778053358E-02
 cg2d: Sum(rhs),rhsMax =  -6.42944031348236E-11  9.33095470707937E-02
 cg2d: Sum(rhs),rhsMax =  -6.44196918031525E-11  9.32609797512251E-02
 cg2d: Sum(rhs),rhsMax =  -6.45497544304874E-11  9.32154117995116E-02
 cg2d: Sum(rhs),rhsMax =  -6.46848685725843E-11  9.31718454030373E-02
 cg2d: Sum(rhs),rhsMax =  -6.48243680956284E-11  9.31333881995787E-02
 cg2d: Sum(rhs),rhsMax =  -6.49162390509161E-11  9.30985355169449E-02
 cg2d: Sum(rhs),rhsMax =  -6.50401399404643E-11  9.30670488645822E-02
 cg2d: Sum(rhs),rhsMax =  -6.51531606443712E-11  9.30398748810262E-02
 cg2d: Sum(rhs),rhsMax =  -6.52055076599822E-11  9.30166097324275E-02
 cg2d: Sum(rhs),rhsMax =  -6.52781162457927E-11  9.29972754609990E-02
 cg2d: Sum(rhs),rhsMax =  -6.53412324247427E-11  9.29820297382717E-02
 cg2d: Sum(rhs),rhsMax =  -6.53897491709188E-11  9.29709929752332E-02
 cg2d: Sum(rhs),rhsMax =  -6.54659659815593E-11  9.29641509950013E-02
 cg2d: Sum(rhs),rhsMax =  -6.55302756502607E-11  9.29615209334590E-02
 cg2d: Sum(rhs),rhsMax =  -6.55986376330020E-11  9.29633718829565E-02
 cg2d: Sum(rhs),rhsMax =  -6.56411869304208E-11  9.29693908522692E-02
 cg2d: Sum(rhs),rhsMax =  -6.56789345132580E-11  9.29798519606533E-02
 cg2d: Sum(rhs),rhsMax =  -6.57473520071505E-11  9.29945891950062E-02
 cg2d: Sum(rhs),rhsMax =  -6.58102183859199E-11  9.30135199221698E-02
 cg2d: Sum(rhs),rhsMax =  -6.58633148020726E-11  9.30366967200948E-02
 cg2d: Sum(rhs),rhsMax =  -6.59048926543448E-11  9.30639379942872E-02
 cg2d: Sum(rhs),rhsMax =  -6.59351739873415E-11  9.30943372229054E-02
 cg2d: Sum(rhs),rhsMax =  -6.59656218537918E-11  9.31287074146654E-02
 cg2d: Sum(rhs),rhsMax =  -6.59916843392949E-11  9.31678179386233E-02
 cg2d: Sum(rhs),rhsMax =  -6.60323185019962E-11  9.32107107842682E-02
 cg2d: Sum(rhs),rhsMax =  -6.60604904112461E-11  9.32571276323755E-02
 cg2d: Sum(rhs),rhsMax =  -6.61062871110119E-11  9.33065316311755E-02
 cg2d: Sum(rhs),rhsMax =  -6.61206783769686E-11  9.33591954075927E-02
 cg2d: Sum(rhs),rhsMax =  -6.61490445752477E-11  9.34146886478563E-02
 cg2d: Sum(rhs),rhsMax =  -6.61911359056688E-11  9.34728575262745E-02
 cg2d: Sum(rhs),rhsMax =  -6.62225552172657E-11  9.35332416439372E-02
 cg2d: Sum(rhs),rhsMax =  -6.62666310713433E-11  9.35956802478285E-02
 cg2d: Sum(rhs),rhsMax =  -6.62975091492157E-11  9.36603996351029E-02
 cg2d: Sum(rhs),rhsMax =  -6.63067031836384E-11  9.37265070557637E-02
 cg2d: Sum(rhs),rhsMax =  -6.63087224017644E-11  9.37939649321757E-02
 cg2d: Sum(rhs),rhsMax =  -6.63248345134093E-11  9.38615860594871E-02
 cg2d: Sum(rhs),rhsMax =  -6.63313293181034E-11  9.39296138483600E-02
 cg2d: Sum(rhs),rhsMax =  -6.63669275785539E-11  9.39979117161534E-02
 cg2d: Sum(rhs),rhsMax =  -6.63883187789968E-11  9.40656754262435E-02
 cg2d: Sum(rhs),rhsMax =  -6.64141727724221E-11  9.41329881273298E-02
 cg2d: Sum(rhs),rhsMax =  -6.64333033029152E-11  9.41997417145446E-02
 cg2d: Sum(rhs),rhsMax =  -6.64775456904465E-11  9.42688901197782E-02
 cg2d: Sum(rhs),rhsMax =  -6.64814939210778E-11  9.43348618349610E-02
 cg2d: Sum(rhs),rhsMax =  -6.65110466702146E-11  9.43996861268426E-02
 cg2d: Sum(rhs),rhsMax =  -6.65584393155783E-11  9.44634379058329E-02
 cg2d: Sum(rhs),rhsMax =  -6.66078442401741E-11  9.45293004355858E-02
 cg2d: Sum(rhs),rhsMax =  -6.66091348744402E-11  9.45908774064893E-02
 cg2d: Sum(rhs),rhsMax =  -6.66783434022378E-11  9.46498217582940E-02
 cg2d: Sum(rhs),rhsMax =  -6.66832422613339E-11  9.47232887056364E-02
 cg2d: Sum(rhs),rhsMax =  -6.67299687728828E-11  9.47807211359021E-02
 cg2d: Sum(rhs),rhsMax =  -6.67585986491304E-11  9.48332476189446E-02
 cg2d: Sum(rhs),rhsMax =  -6.67950694754893E-11  9.48846517573111E-02
 cg2d: Sum(rhs),rhsMax =  -6.68392285962938E-11  9.49306441413516E-02
 cg2d: Sum(rhs),rhsMax =  -6.68618216348449E-11  9.49721318307047E-02
 cg2d: Sum(rhs),rhsMax =  -6.69014288412484E-11  9.50104288895965E-02
 cg2d: Sum(rhs),rhsMax =  -6.69271860154197E-11  9.50453659633851E-02
 cg2d: Sum(rhs),rhsMax =  -6.69984068224494E-11  9.50765406232870E-02
 cg2d: Sum(rhs),rhsMax =  -6.70542232850124E-11  9.51034487209224E-02
 cg2d: Sum(rhs),rhsMax =  -6.71140087948885E-11  9.51273198611085E-02
 cg2d: Sum(rhs),rhsMax =  -6.71510902439110E-11  9.51477399738368E-02
 cg2d: Sum(rhs),rhsMax =  -6.72097377751868E-11  9.51639845396949E-02
 cg2d: Sum(rhs),rhsMax =  -6.72414901536911E-11  9.52072544589665E-02
 cg2d: Sum(rhs),rhsMax =  -6.72875366536374E-11  9.52273721367296E-02
 cg2d: Sum(rhs),rhsMax =  -6.73380240456822E-11  9.52401937660316E-02
 cg2d: Sum(rhs),rhsMax =  -6.73833211450869E-11  9.52467088359304E-02
 cg2d: Sum(rhs),rhsMax =  -6.74354461160931E-11  9.52463993659547E-02
 cg2d: Sum(rhs),rhsMax =  -6.75024480756292E-11  9.52412976274649E-02
 cg2d: Sum(rhs),rhsMax =  -6.75750011502885E-11  9.52304154169738E-02
 cg2d: Sum(rhs),rhsMax =  -6.76396161303217E-11  9.52145603365987E-02
 cg2d: Sum(rhs),rhsMax =  -6.76960709711238E-11  9.51980448766606E-02
 cg2d: Sum(rhs),rhsMax =  -6.77498057655157E-11  9.51730556350446E-02
 cg2d: Sum(rhs),rhsMax =  -6.78506140161517E-11  9.51450069093822E-02
 cg2d: Sum(rhs),rhsMax =  -6.79080125465248E-11  9.51141656235017E-02
 cg2d: Sum(rhs),rhsMax =  -6.79354350552330E-11  9.51153334166834E-02
 cg2d: Sum(rhs),rhsMax =  -6.80324130364340E-11  9.50962769000085E-02
 cg2d: Sum(rhs),rhsMax =  -6.80931977470323E-11  9.50759799059455E-02
 cg2d: Sum(rhs),rhsMax =  -6.81747991393422E-11  9.50452420664957E-02
 cg2d: Sum(rhs),rhsMax =  -6.82444101229862E-11  9.50108408608455E-02
 cg2d: Sum(rhs),rhsMax =  -6.83098577702879E-11  9.49734788624273E-02
 cg2d: Sum(rhs),rhsMax =  -6.84104439763189E-11  9.49325393614697E-02
 cg2d: Sum(rhs),rhsMax =  -6.84931555916535E-11  9.48892793951993E-02
 cg2d: Sum(rhs),rhsMax =  -6.85791423649107E-11  9.48437928150417E-02
 cg2d: Sum(rhs),rhsMax =  -6.86802281713028E-11  9.47954476904577E-02
 cg2d: Sum(rhs),rhsMax =  -6.88076817745298E-11  9.47445188681537E-02
 cg2d: Sum(rhs),rhsMax =  -6.88655243941128E-11  9.46913948918230E-02
 cg2d: Sum(rhs),rhsMax =  -6.89152068744647E-11  9.46364899521732E-02
 cg2d: Sum(rhs),rhsMax =  -6.90201229502918E-11  9.45804165082856E-02
 cg2d: Sum(rhs),rhsMax =  -6.91138257735702E-11  9.45234584223999E-02
 cg2d: Sum(rhs),rhsMax =  -6.92142454461475E-11  9.44656731394937E-02
 cg2d: Sum(rhs),rhsMax =  -6.93395896256277E-11  9.44073653118622E-02
 cg2d: Sum(rhs),rhsMax =  -6.94598822903458E-11  9.43490990168632E-02
 cg2d: Sum(rhs),rhsMax =  -6.95641322323581E-11  9.42910497975063E-02
 cg2d: Sum(rhs),rhsMax =  -6.97051860676368E-11  9.42333140409989E-02
 cg2d: Sum(rhs),rhsMax =  -6.98273106003455E-11  9.41758358131756E-02
 cg2d: Sum(rhs),rhsMax =  -6.99311164531480E-11  9.41193601157744E-02
 cg2d: Sum(rhs),rhsMax =  -7.00551838761498E-11  9.40641240134718E-02
 cg2d: Sum(rhs),rhsMax =  -7.01620428422700E-11  9.40223186784597E-02
 cg2d: Sum(rhs),rhsMax =  -7.02791158602167E-11  9.39654074919129E-02
 cg2d: Sum(rhs),rhsMax =  -7.03865854490004E-11  9.39134472115879E-02
 cg2d: Sum(rhs),rhsMax =  -7.04798441830690E-11  9.38637731475706E-02
 cg2d: Sum(rhs),rhsMax =  -7.05516756127622E-11  9.38163783787064E-02
 cg2d: Sum(rhs),rhsMax =  -7.06199543287767E-11  9.37708997719704E-02
 cg2d: Sum(rhs),rhsMax =  -7.06996683419447E-11  9.37273907495596E-02
 cg2d: Sum(rhs),rhsMax =  -7.10399516989924E-11  9.33799923418646E-02
 cg2d: Sum(rhs),rhsMax =  -7.11231074035368E-11  9.33520309326440E-02
 cg2d: Sum(rhs),rhsMax =  -7.11379843920668E-11  9.33510311649758E-02
 cg2d: Sum(rhs),rhsMax =  -7.11939396325079E-11  9.33514541846149E-02
 cg2d: Sum(rhs),rhsMax =  -7.12336856167894E-11  9.33570344633265E-02
 cg2d: Sum(rhs),rhsMax =  -7.12586656348435E-11  9.33663372095789E-02
 cg2d: Sum(rhs),rhsMax =  -7.13298309307220E-11  9.33774988990873E-02
 cg2d: Sum(rhs),rhsMax =  -7.13923364870084E-11  9.33910230661890E-02
 cg2d: Sum(rhs),rhsMax =  -7.15024706110512E-11  9.34078854877991E-02
 cg2d: Sum(rhs),rhsMax =  -7.15605352752391E-11  9.34286084610683E-02
 cg2d: Sum(rhs),rhsMax =  -7.16323667049323E-11  9.34534013789301E-02
 cg2d: Sum(rhs),rhsMax =  -7.16308123926979E-11  9.34819576563553E-02
 cg2d: Sum(rhs),rhsMax =  -7.15960624120271E-11  9.35140538165496E-02
 cg2d: Sum(rhs),rhsMax =  -7.15675296802942E-11  9.35492026727672E-02
 cg2d: Sum(rhs),rhsMax =  -7.15584258514923E-11  9.35872403041934E-02
 cg2d: Sum(rhs),rhsMax =  -7.15366654802096E-11  9.36286096346991E-02
 cg2d: Sum(rhs),rhsMax =  -7.15062453693349E-11  9.36727547645389E-02
 cg2d: Sum(rhs),rhsMax =  -7.14817094404907E-11  9.37227022653096E-02
 cg2d: Sum(rhs),rhsMax =  -7.14081016539581E-11  9.37789237402504E-02
 cg2d: Sum(rhs),rhsMax =  -7.13190617673831E-11  9.38402983356723E-02
 cg2d: Sum(rhs),rhsMax =  -7.12302439254131E-11  9.39100066148673E-02
 cg2d: Sum(rhs),rhsMax =  -7.11589676072322E-11  9.39870408451048E-02
 cg2d: Sum(rhs),rhsMax =  -7.10856928876069E-11  9.40709716154333E-02
 cg2d: Sum(rhs),rhsMax =  -7.09974301571492E-11  9.41614382317823E-02
 cg2d: Sum(rhs),rhsMax =  -7.08881842115261E-11  9.42588222327062E-02
 cg2d: Sum(rhs),rhsMax =  -7.07948144551551E-11  9.43636836056460E-02
 cg2d: Sum(rhs),rhsMax =  -7.06976699405004E-11  9.44760319980315E-02
 cg2d: Sum(rhs),rhsMax =  -7.05899783071118E-11  9.45950393839332E-02
 cg2d: Sum(rhs),rhsMax =  -7.04385438865529E-11  9.47147399739817E-02
 cg2d: Sum(rhs),rhsMax =  -7.03632707654833E-11  9.48349596403165E-02
 cg2d: Sum(rhs),rhsMax =  -7.01984026463265E-11  9.49563761521963E-02
 cg2d: Sum(rhs),rhsMax =  -7.00459690250455E-11  9.50794060881919E-02
 cg2d: Sum(rhs),rhsMax =  -6.99367230794223E-11  9.52047595991657E-02
 cg2d: Sum(rhs),rhsMax =  -6.97762958523640E-11  9.53353082944221E-02
 cg2d: Sum(rhs),rhsMax =  -6.96381841081006E-11  9.54713183106657E-02
 cg2d: Sum(rhs),rhsMax =  -6.94522772626271E-11  9.56126830071842E-02
 cg2d: Sum(rhs),rhsMax =  -6.92965129722722E-11  9.57591798673285E-02
 cg2d: Sum(rhs),rhsMax =  -6.91273704944706E-11  9.59105535076332E-02
 cg2d: Sum(rhs),rhsMax =  -6.89807100329176E-11  9.60667839949733E-02
 cg2d: Sum(rhs),rhsMax =  -6.88109569324524E-11  9.62226249782235E-02
 cg2d: Sum(rhs),rhsMax =  -6.86380952075183E-11  9.63773484813733E-02
 cg2d: Sum(rhs),rhsMax =  -6.84439172005114E-11  9.65316275446248E-02
 cg2d: Sum(rhs),rhsMax =  -6.82933709583722E-11  9.66856125940223E-02
 cg2d: Sum(rhs),rhsMax =  -6.81267264823759E-11  9.68397914876455E-02
 cg2d: Sum(rhs),rhsMax =  -6.79600264952285E-11  9.69938563318951E-02
 cg2d: Sum(rhs),rhsMax =  -6.77721767594619E-11  9.71505148788539E-02
 cg2d: Sum(rhs),rhsMax =  -6.75902667168771E-11  9.73089520439007E-02
 cg2d: Sum(rhs),rhsMax =  -6.74260647315350E-11  9.74685423881456E-02
 cg2d: Sum(rhs),rhsMax =  -6.72414346425398E-11  9.76295161473252E-02
 cg2d: Sum(rhs),rhsMax =  -6.70729027874017E-11  9.77919298321794E-02
 cg2d: Sum(rhs),rhsMax =  -6.68780031354288E-11  9.79557829125671E-02
 cg2d: Sum(rhs),rhsMax =  -6.66984245611957E-11  9.81207883900323E-02
 cg2d: Sum(rhs),rhsMax =  -6.65081878459262E-11  9.82865304072508E-02
 cg2d: Sum(rhs),rhsMax =  -6.63292754055078E-11  9.84527375060300E-02
 cg2d: Sum(rhs),rhsMax =  -6.61276589042359E-11  9.86190491855807E-02
 cg2d: Sum(rhs),rhsMax =  -6.59768906174918E-11  9.87831096636518E-02
 cg2d: Sum(rhs),rhsMax =  -6.57834342554509E-11  9.89441760014702E-02
 cg2d: Sum(rhs),rhsMax =  -6.55764886836607E-11  9.90989414558057E-02
 cg2d: Sum(rhs),rhsMax =  -6.53836984554346E-11  9.92488052085545E-02
 cg2d: Sum(rhs),rhsMax =  -6.51889653369153E-11  9.93937801567645E-02
 cg2d: Sum(rhs),rhsMax =  -6.50088316511699E-11  9.95346000751997E-02
 cg2d: Sum(rhs),rhsMax =  -6.48239795175698E-11  9.96705654123079E-02
 cg2d: Sum(rhs),rhsMax =  -6.46361297818032E-11  9.98018645418036E-02
 cg2d: Sum(rhs),rhsMax =  -6.44237441171924E-11  9.99278717557122E-02
 cg2d: Sum(rhs),rhsMax =  -6.42571551523474E-11  1.00047614039841E-01
 cg2d: Sum(rhs),rhsMax =  -6.40919539662832E-11  1.00160116046196E-01
 cg2d: Sum(rhs),rhsMax =  -6.39301389604441E-11  1.00264569171813E-01
 cg2d: Sum(rhs),rhsMax =  -6.38174513234446E-11  1.00359016843077E-01
 cg2d: Sum(rhs),rhsMax =  -6.37351837973199E-11  1.00444474776306E-01
 cg2d: Sum(rhs),rhsMax =  -6.36434793754859E-11  1.00518947897350E-01
 cg2d: Sum(rhs),rhsMax =  -6.35567709572626E-11  1.00582306064731E-01
 cg2d: Sum(rhs),rhsMax =  -6.35046459862565E-11  1.00634925473983E-01
 cg2d: Sum(rhs),rhsMax =  -6.34244323727273E-11  1.00676758106391E-01
 cg2d: Sum(rhs),rhsMax =  -6.33747221367997E-11  1.00707741595556E-01
 cg2d: Sum(rhs),rhsMax =  -6.33149921380749E-11  1.00727570769097E-01
 cg2d: Sum(rhs),rhsMax =  -6.32574270742481E-11  1.00736125655433E-01
 cg2d: Sum(rhs),rhsMax =  -6.31759922153918E-11  1.00733459144861E-01
 cg2d: Sum(rhs),rhsMax =  -6.31455165933659E-11  1.00719634053538E-01
 cg2d: Sum(rhs),rhsMax =  -6.31098506786998E-11  1.00694843570330E-01
 cg2d: Sum(rhs),rhsMax =  -6.30971108694922E-11  1.00659325744761E-01
 cg2d: Sum(rhs),rhsMax =  -6.30735463857945E-11  1.00613224390990E-01
 cg2d: Sum(rhs),rhsMax =  -6.30473590002012E-11  1.00556669786102E-01
 cg2d: Sum(rhs),rhsMax =  -6.30240165611085E-11  1.00489891759856E-01
 cg2d: Sum(rhs),rhsMax =  -6.30080709829173E-11  1.00413187319533E-01
 cg2d: Sum(rhs),rhsMax =  -6.30026308900966E-11  1.00327009785876E-01
 cg2d: Sum(rhs),rhsMax =  -6.30069052487414E-11  1.00231946659289E-01
 cg2d: Sum(rhs),rhsMax =  -6.30012847446793E-11  1.00128614550715E-01
 cg2d: Sum(rhs),rhsMax =  -6.30340016294362E-11  1.00017542792896E-01
 cg2d: Sum(rhs),rhsMax =  -6.30818244862219E-11  9.98993544161746E-02
 cg2d: Sum(rhs),rhsMax =  -6.31004484774600E-11  9.97748250407319E-02
 cg2d: Sum(rhs),rhsMax =  -6.31320412614045E-11  9.96445099050442E-02
 cg2d: Sum(rhs),rhsMax =  -6.31646818183285E-11  9.95092242152040E-02
 cg2d: Sum(rhs),rhsMax =  -6.32012411155847E-11  9.93697956792086E-02
 cg2d: Sum(rhs),rhsMax =  -6.32416402232550E-11  9.92272646024639E-02
 cg2d: Sum(rhs),rhsMax =  -6.32796636271249E-11  9.90825123215819E-02
 cg2d: Sum(rhs),rhsMax =  -6.33227949242698E-11  9.89361252275845E-02
 cg2d: Sum(rhs),rhsMax =  -6.33809532635254E-11  9.87888508626187E-02
 cg2d: Sum(rhs),rhsMax =  -6.34172089841734E-11  9.86416587939511E-02
 cg2d: Sum(rhs),rhsMax =  -6.34614444328108E-11  9.84978760268635E-02
 cg2d: Sum(rhs),rhsMax =  -6.34957642020595E-11  9.83537948911432E-02
 cg2d: Sum(rhs),rhsMax =  -6.35532321213717E-11  9.82131360798718E-02
 cg2d: Sum(rhs),rhsMax =  -6.36014019228526E-11  9.80765038735480E-02
 cg2d: Sum(rhs),rhsMax =  -6.36508346030240E-11  9.79446298402522E-02
 cg2d: Sum(rhs),rhsMax =  -6.36905389539422E-11  9.78183590386933E-02
 cg2d: Sum(rhs),rhsMax =  -6.36982827595389E-11  9.76989627299770E-02
 cg2d: Sum(rhs),rhsMax =  -6.37393887670257E-11  9.75858319971418E-02
 cg2d: Sum(rhs),rhsMax =  -6.37432190364606E-11  9.74800032373263E-02
 cg2d: Sum(rhs),rhsMax =  -6.37380148660327E-11  9.73813236677718E-02
 cg2d: Sum(rhs),rhsMax =  -6.37476738063469E-11  9.72921956172659E-02
 cg2d: Sum(rhs),rhsMax =  -6.37436214923071E-11  9.72122000304780E-02
 cg2d: Sum(rhs),rhsMax =  -6.37450925378147E-11  9.71418910593802E-02
 cg2d: Sum(rhs),rhsMax =  -6.37173369621991E-11  9.70819292181785E-02
 cg2d: Sum(rhs),rhsMax =  -6.37033759076644E-11  9.70332901673894E-02
 cg2d: Sum(rhs),rhsMax =  -6.36823649369234E-11  9.69964943238475E-02
 cg2d: Sum(rhs),rhsMax =  -6.36688202160229E-11  9.69715379037465E-02
 cg2d: Sum(rhs),rhsMax =  -6.36235786277695E-11  9.69584465915868E-02
 cg2d: Sum(rhs),rhsMax =  -6.34875763072529E-11  9.69574109885134E-02
 cg2d: Sum(rhs),rhsMax =  -6.33403052230364E-11  9.69684404004037E-02
 cg2d: Sum(rhs),rhsMax =  -6.32149610435562E-11  9.69911465088669E-02
 cg2d: Sum(rhs),rhsMax =  -6.31025509623129E-11  9.70239535018292E-02
 cg2d: Sum(rhs),rhsMax =  -6.29689911324505E-11  9.70664587958872E-02
 cg2d: Sum(rhs),rhsMax =  -6.28166130223207E-11  9.71183782336854E-02
 cg2d: Sum(rhs),rhsMax =  -6.26554919058719E-11  9.71796501235773E-02
 cg2d: Sum(rhs),rhsMax =  -6.25191010072967E-11  9.72500220963770E-02
 cg2d: Sum(rhs),rhsMax =  -6.23918139375235E-11  9.73329486352405E-02
 cg2d: Sum(rhs),rhsMax =  -6.22377149817055E-11  9.74195847910222E-02
 cg2d: Sum(rhs),rhsMax =  -6.20642426341078E-11  9.75129890039734E-02
 cg2d: Sum(rhs),rhsMax =  -6.18970430465993E-11  9.76126241395868E-02
 cg2d: Sum(rhs),rhsMax =  -6.17272344349828E-11  9.77173862912047E-02
 cg2d: Sum(rhs),rhsMax =  -6.15859585550993E-11  9.78264577931845E-02
 cg2d: Sum(rhs),rhsMax =  -6.14200357240691E-11  9.79392093457825E-02
 cg2d: Sum(rhs),rhsMax =  -6.12652151232851E-11  9.80546800174266E-02
 cg2d: Sum(rhs),rhsMax =  -6.11121153681893E-11  9.81722227329859E-02
 cg2d: Sum(rhs),rhsMax =  -6.09554628994147E-11  9.82908294299801E-02
 cg2d: Sum(rhs),rhsMax =  -6.08174621774538E-11  9.83984130553374E-02
 cg2d: Sum(rhs),rhsMax =  -6.06684702475491E-11  9.85181966779887E-02
 cg2d: Sum(rhs),rhsMax =  -6.05237526762892E-11  9.86359644493046E-02
 cg2d: Sum(rhs),rhsMax =  -6.03972982737844E-11  9.87510486554483E-02
 cg2d: Sum(rhs),rhsMax =  -6.02544125705151E-11  9.88630929438943E-02
 cg2d: Sum(rhs),rhsMax =  -6.01192429172670E-11  9.89694097539897E-02
 cg2d: Sum(rhs),rhsMax =  -5.99981175852804E-11  9.90714362333502E-02
 cg2d: Sum(rhs),rhsMax =  -5.98713301158682E-11  9.91689333304014E-02
 cg2d: Sum(rhs),rhsMax =  -5.97467075813540E-11  9.92590825860107E-02
 cg2d: Sum(rhs),rhsMax =  -5.96353522119841E-11  9.93426266258732E-02
 cg2d: Sum(rhs),rhsMax =  -5.95392624092028E-11  9.94182367851645E-02
 cg2d: Sum(rhs),rhsMax =  -5.94393978481378E-11  9.94859746434683E-02
 cg2d: Sum(rhs),rhsMax =  -5.93152749139847E-11  9.95440061868333E-02
 cg2d: Sum(rhs),rhsMax =  -5.92308424529620E-11  9.95923815284212E-02
 cg2d: Sum(rhs),rhsMax =  -5.91495186164082E-11  9.96313190728405E-02
 cg2d: Sum(rhs),rhsMax =  -5.90812954115449E-11  9.96707188869838E-02
 cg2d: Sum(rhs),rhsMax =  -5.90240634146255E-11  9.96911728715732E-02
 cg2d: Sum(rhs),rhsMax =  -5.89296389463811E-11  9.97016731380709E-02
 cg2d: Sum(rhs),rhsMax =  -5.88494253328520E-11  9.97026669437106E-02
 cg2d: Sum(rhs),rhsMax =  -5.87660475837026E-11  9.96943432409721E-02
 cg2d: Sum(rhs),rhsMax =  -5.86929949086823E-11  9.96772771566460E-02
 cg2d: Sum(rhs),rhsMax =  -5.86126147616994E-11  9.96517046275300E-02
 cg2d: Sum(rhs),rhsMax =  -5.85691495302854E-11  9.96180931893917E-02
 cg2d: Sum(rhs),rhsMax =  -5.85547166309652E-11  9.95769240072468E-02
 cg2d: Sum(rhs),rhsMax =  -5.85400061758889E-11  9.95176814821074E-02
 cg2d: Sum(rhs),rhsMax =  -5.84841064465991E-11  9.94657912616774E-02
 cg2d: Sum(rhs),rhsMax =  -5.84819415117011E-11  9.94078971964087E-02
 cg2d: Sum(rhs),rhsMax =  -5.85585469004002E-11  9.93445379014147E-02
 cg2d: Sum(rhs),rhsMax =  -5.85766435357016E-11  9.92768385133380E-02
 cg2d: Sum(rhs),rhsMax =  -5.86144466296901E-11  9.92054267862125E-02
 cg2d: Sum(rhs),rhsMax =  -5.86001247526724E-11  9.91310388053376E-02
 cg2d: Sum(rhs),rhsMax =  -5.85422266219382E-11  9.90545121010403E-02
 cg2d: Sum(rhs),rhsMax =  -5.85697601529489E-11  9.89768412268708E-02
 cg2d: Sum(rhs),rhsMax =  -5.86189985440910E-11  9.88990815673557E-02
 cg2d: Sum(rhs),rhsMax =  -5.86621307085977E-11  9.88216006888679E-02
 cg2d: Sum(rhs),rhsMax =  -5.87295767573437E-11  9.87447763028168E-02
 cg2d: Sum(rhs),rhsMax =  -5.87618287362091E-11  9.86688741109914E-02
 cg2d: Sum(rhs),rhsMax =  -5.88272208723595E-11  9.85945987549852E-02
 cg2d: Sum(rhs),rhsMax =  -5.89164272923881E-11  9.85228891121546E-02
 cg2d: Sum(rhs),rhsMax =  -5.89697179975701E-11  9.84551283526656E-02
 cg2d: Sum(rhs),rhsMax =  -5.90306692416220E-11  9.83918322842087E-02
 cg2d: Sum(rhs),rhsMax =  -5.90698601143913E-11  9.83335177799918E-02
 cg2d: Sum(rhs),rhsMax =  -5.91138804573177E-11  9.82805185929447E-02
 cg2d: Sum(rhs),rhsMax =  -5.91481863487786E-11  9.82333314374886E-02
 cg2d: Sum(rhs),rhsMax =  -5.91858229093134E-11  9.81923567898636E-02
 cg2d: Sum(rhs),rhsMax =  -5.92283999623078E-11  9.81617475480230E-02
 cg2d: Sum(rhs),rhsMax =  -5.92881299610326E-11  9.81341164600917E-02
 cg2d: Sum(rhs),rhsMax =  -5.93148863359261E-11  9.81130720148975E-02
 cg2d: Sum(rhs),rhsMax =  -5.93711191321233E-11  9.80990218374075E-02
 cg2d: Sum(rhs),rhsMax =  -5.94038152001986E-11  9.80922044214874E-02
 cg2d: Sum(rhs),rhsMax =  -5.94449489632609E-11  9.80929029287055E-02
 cg2d: Sum(rhs),rhsMax =  -5.94768678752189E-11  9.81012832772761E-02
 cg2d: Sum(rhs),rhsMax =  -5.94988502911065E-11  9.81174155394348E-02
 cg2d: Sum(rhs),rhsMax =  -5.95232196864970E-11  9.81413125331914E-02
 cg2d: Sum(rhs),rhsMax =  -5.95656302060377E-11  9.81729352233710E-02
 cg2d: Sum(rhs),rhsMax =  -5.95925531143848E-11  9.82122097208764E-02
 cg2d: Sum(rhs),rhsMax =  -5.96052651680168E-11  9.82592506788804E-02
 cg2d: Sum(rhs),rhsMax =  -5.96254712270650E-11  9.83131084039039E-02
 cg2d: Sum(rhs),rhsMax =  -5.96401261709900E-11  9.83730597657956E-02
 cg2d: Sum(rhs),rhsMax =  -5.96748761516608E-11  9.84387063866665E-02
 cg2d: Sum(rhs),rhsMax =  -5.97301652582871E-11  9.85095993169054E-02
 cg2d: Sum(rhs),rhsMax =  -5.97706883986859E-11  9.85857036811965E-02
 cg2d: Sum(rhs),rhsMax =  -5.97981109073942E-11  9.86671316692865E-02
 cg2d: Sum(rhs),rhsMax =  -5.98250338157413E-11  9.87538356491275E-02
 cg2d: Sum(rhs),rhsMax =  -5.98429084064378E-11  9.88458378209532E-02
 cg2d: Sum(rhs),rhsMax =  -5.98694427367263E-11  9.89428732531544E-02
 cg2d: Sum(rhs),rhsMax =  -5.99048588512119E-11  9.90443718897336E-02
 cg2d: Sum(rhs),rhsMax =  -5.99352234509354E-11  9.91496847686029E-02
 cg2d: Sum(rhs),rhsMax =  -5.99325589156763E-11  9.92784477248733E-02
 cg2d: Sum(rhs),rhsMax =  -5.99414406998733E-11  9.93984238119612E-02
 cg2d: Sum(rhs),rhsMax =  -5.99361393849307E-11  9.95191805387117E-02
 cg2d: Sum(rhs),rhsMax =  -5.99592875349941E-11  9.96406295006531E-02
 cg2d: Sum(rhs),rhsMax =  -5.99132410350478E-11  9.97627299580404E-02
 cg2d: Sum(rhs),rhsMax =  -5.98945337770829E-11  9.98844833283466E-02
 cg2d: Sum(rhs),rhsMax =  -5.98621152647638E-11  1.00005464190025E-01
 cg2d: Sum(rhs),rhsMax =  -5.98453508970920E-11  1.00125075739959E-01
 cg2d: Sum(rhs),rhsMax =  -5.98337768220603E-11  1.00243060646287E-01
 cg2d: Sum(rhs),rhsMax =  -5.98169291876616E-11  1.00358939159451E-01
 cg2d: Sum(rhs),rhsMax =  -5.97761840026578E-11  1.00472298101414E-01
 cg2d: Sum(rhs),rhsMax =  -5.97426552673141E-11  1.00582455975386E-01
 cg2d: Sum(rhs),rhsMax =  -5.97331906160292E-11  1.00688967923147E-01
 cg2d: Sum(rhs),rhsMax =  -5.97104587996000E-11  1.00791613964160E-01
 cg2d: Sum(rhs),rhsMax =  -5.96856175594240E-11  1.00890117999688E-01
 cg2d: Sum(rhs),rhsMax =  -5.96769023086807E-11  1.00984163829589E-01
 cg2d: Sum(rhs),rhsMax =  -5.96741545066948E-11  1.01073481022248E-01
 cg2d: Sum(rhs),rhsMax =  -5.96706989375306E-11  1.01157756663969E-01
 cg2d: Sum(rhs),rhsMax =  -5.96563215493617E-11  1.01236946920086E-01
 cg2d: Sum(rhs),rhsMax =  -5.96429433619150E-11  1.01310964970711E-01
 cg2d: Sum(rhs),rhsMax =  -5.96332982993886E-11  1.01379436714428E-01
 cg2d: Sum(rhs),rhsMax =  -5.96255267382162E-11  1.01441934065404E-01
 cg2d: Sum(rhs),rhsMax =  -5.96276361619630E-11  1.01498370908863E-01
(PID.TID 0000.0001)      cg2d_init_res =   5.61882911523372E-02
(PID.TID 0000.0001)      cg2d_iters(min,last) =      -1      38
(PID.TID 0000.0001)      cg2d_last_res =   5.15343070977545E-14
(PID.TID 0000.0001) // =======================================================
(PID.TID 0000.0001) // Begin MONITOR dynamic field statistics
(PID.TID 0000.0001) // =======================================================
(PID.TID 0000.0001) %MON time_tsnumber                =                  6240
(PID.TID 0000.0001) %MON time_secondsf                =   9.3600000000000E+04
(PID.TID 0000.0001) %MON dynstat_eta_max              =   1.3191624373094E-02
(PID.TID 0000.0001) %MON dynstat_eta_min              =  -1.4900316655990E-02
(PID.TID 0000.0001) %MON dynstat_eta_mean             =   1.3357982919696E-14
(PID.TID 0000.0001) %MON dynstat_eta_sd               =   3.5665164178283E-03
(PID.TID 0000.0001) %MON dynstat_eta_del2             =   7.8286894370735E-05
(PID.TID 0000.0001) %MON dynstat_uvel_max             =   1.2851882606674E+00
(PID.TID 0000.0001) %MON dynstat_uvel_min             =  -8.2466089403498E-01
(PID.TID 0000.0001) %MON dynstat_uvel_mean            =   4.5187940751420E-01
(PID.TID 0000.0001) %MON dynstat_uvel_sd              =   9.4225837685473E-02
(PID.TID 0000.0001) %MON dynstat_uvel_del2            =   1.0616258239168E-03
(PID.TID 0000.0001) %MON dynstat_vvel_max             =   0.0000000000000E+00
(PID.TID 0000.0001) %MON dynstat_vvel_min             =   0.0000000000000E+00
(PID.TID 0000.0001) %MON dynstat_vvel_mean            =   0.0000000000000E+00
(PID.TID 0000.0001) %MON dynstat_vvel_sd              =   0.0000000000000E+00
(PID.TID 0000.0001) %MON dynstat_vvel_del2            =   0.0000000000000E+00
(PID.TID 0000.0001) %MON dynstat_wvel_max             =   3.8491841359073E-02
(PID.TID 0000.0001) %MON dynstat_wvel_min             =  -7.8414981209713E-02
(PID.TID 0000.0001) %MON dynstat_wvel_mean            =  -4.7356955848635E-20
(PID.TID 0000.0001) %MON dynstat_wvel_sd              =   5.3524598227641E-03
(PID.TID 0000.0001) %MON dynstat_wvel_del2            =   1.6074684539437E-04
(PID.TID 0000.0001) %MON dynstat_theta_max            =   1.5000000000011E+01
(PID.TID 0000.0001) %MON dynstat_theta_min            =   9.9999999999951E+00
(PID.TID 0000.0001) %MON dynstat_theta_mean           =   1.1004384323218E+01
(PID.TID 0000.0001) %MON dynstat_theta_sd             =   1.8603070819443E+00
(PID.TID 0000.0001) %MON dynstat_theta_del2           =   7.5077840363985E-04
(PID.TID 0000.0001) %MON dynstat_salt_max             =   3.5000000000000E+01
(PID.TID 0000.0001) %MON dynstat_salt_min             =   3.5000000000000E+01
(PID.TID 0000.0001) %MON dynstat_salt_mean            =   3.5000000000000E+01
(PID.TID 0000.0001) %MON dynstat_salt_sd              =   4.0500935938326E-13
(PID.TID 0000.0001) %MON dynstat_salt_del2            =   0.0000000000000E+00
(PID.TID 0000.0001) %MON dynstat_sst_max              =   1.5000000000011E+01
(PID.TID 0000.0001) %MON dynstat_sst_min              =   1.4983946975777E+01
(PID.TID 0000.0001) %MON dynstat_sst_mean             =   1.4999928571248E+01
(PID.TID 0000.0001) %MON dynstat_sst_sd               =   8.4108805999970E-04
(PID.TID 0000.0001) %MON dynstat_sst_del2             =   1.4544316071714E-04
(PID.TID 0000.0001) %MON dynstat_sss_max              =   3.5000000000000E+01
(PID.TID 0000.0001) %MON dynstat_sss_min              =   3.5000000000000E+01
(PID.TID 0000.0001) %MON dynstat_sss_mean             =   3.5000000000000E+01
(PID.TID 0000.0001) %MON dynstat_sss_sd               =   4.2632564145606E-14
(PID.TID 0000.0001) %MON dynstat_sss_del2             =   0.0000000000000E+00
(PID.TID 0000.0001) %MON forcing_qnet_max             =   0.0000000000000E+00
(PID.TID 0000.0001) %MON forcing_qnet_min             =   0.0000000000000E+00
(PID.TID 0000.0001) %MON forcing_qnet_mean            =   0.0000000000000E+00
(PID.TID 0000.0001) %MON forcing_qnet_sd              =   0.0000000000000E+00
(PID.TID 0000.0001) %MON forcing_qnet_del2            =   0.0000000000000E+00
(PID.TID 0000.0001) %MON forcing_qsw_max              =   0.0000000000000E+00
(PID.TID 0000.0001) %MON forcing_qsw_min              =   0.0000000000000E+00
(PID.TID 0000.0001) %MON forcing_qsw_mean             =   0.0000000000000E+00
(PID.TID 0000.0001) %MON forcing_qsw_sd               =   0.0000000000000E+00
(PID.TID 0000.0001) %MON forcing_qsw_del2             =   0.0000000000000E+00
(PID.TID 0000.0001) %MON forcing_empmr_max            =   0.0000000000000E+00
(PID.TID 0000.0001) %MON forcing_empmr_min            =   0.0000000000000E+00
(PID.TID 0000.0001) %MON forcing_empmr_mean           =   0.0000000000000E+00
(PID.TID 0000.0001) %MON forcing_empmr_sd             =   0.0000000000000E+00
(PID.TID 0000.0001) %MON forcing_empmr_del2           =   0.0000000000000E+00
(PID.TID 0000.0001) %MON forcing_fu_max               =   0.0000000000000E+00
(PID.TID 0000.0001) %MON forcing_fu_min               =   0.0000000000000E+00
(PID.TID 0000.0001) %MON forcing_fu_mean              =   0.0000000000000E+00
(PID.TID 0000.0001) %MON forcing_fu_sd                =   0.0000000000000E+00
(PID.TID 0000.0001) %MON forcing_fu_del2              =   0.0000000000000E+00
(PID.TID 0000.0001) %MON forcing_fv_max               =   0.0000000000000E+00
(PID.TID 0000.0001) %MON forcing_fv_min               =   0.0000000000000E+00
(PID.TID 0000.0001) %MON forcing_fv_mean              =   0.0000000000000E+00
(PID.TID 0000.0001) %MON forcing_fv_sd                =   0.0000000000000E+00
(PID.TID 0000.0001) %MON forcing_fv_del2              =   0.0000000000000E+00
(PID.TID 0000.0001) %MON advcfl_uvel_max              =   9.1036802054281E-02
(PID.TID 0000.0001) %MON advcfl_vvel_max              =   0.0000000000000E+00
(PID.TID 0000.0001) %MON advcfl_wvel_max              =   4.9528459734583E-01
(PID.TID 0000.0001) %MON advcfl_W_hf_max              =   5.0067299866765E-01
(PID.TID 0000.0001) %MON pe_b_mean                    =   3.1526235552150E-07
(PID.TID 0000.0001) %MON ke_max                       =   6.9109251369233E-01
(PID.TID 0000.0001) %MON ke_mean                      =   1.0657541725270E-01
(PID.TID 0000.0001) %MON ke_vol                       =   9.6656886657870E+10
(PID.TID 0000.0001) %MON vort_r_min                   =   0.0000000000000E+00
(PID.TID 0000.0001) %MON vort_r_max                   =   0.0000000000000E+00
(PID.TID 0000.0001) %MON vort_a_mean                  =   0.0000000000000E+00
(PID.TID 0000.0001) %MON vort_a_sd                    =   0.0000000000000E+00
(PID.TID 0000.0001) %MON vort_p_mean                  =   0.0000000000000E+00
(PID.TID 0000.0001) %MON vort_p_sd                    =   0.0000000000000E+00
(PID.TID 0000.0001) %MON surfExpan_theta_mean         =   1.8892161098981E-10
(PID.TID 0000.0001) %MON surfExpan_salt_mean          =  -5.2588092024974E-18
(PID.TID 0000.0001) // =======================================================
(PID.TID 0000.0001) // End MONITOR dynamic field statistics
(PID.TID 0000.0001) // =======================================================
(PID.TID 0000.0001) // =======================================================
(PID.TID 0000.0001) // Begin OBCS MONITOR field statistics
(PID.TID 0000.0001) // =======================================================
(PID.TID 0000.0001) %MON obc_E_uVel_max               =   4.4822851314926E-01
(PID.TID 0000.0001) %MON obc_E_uVel_min               =   4.4822851314926E-01
(PID.TID 0000.0001) %MON obc_E_uVel_mean              =   4.4822851314926E-01
(PID.TID 0000.0001) %MON obc_E_uVel_sd                =  -1.9428902930940E-16
(PID.TID 0000.0001) %MON obc_E_uVel_Int               =   4.4822851314926E+05
(PID.TID 0000.0001) %MON obc_W_uVel_max               =   4.4822851314926E-01
(PID.TID 0000.0001) %MON obc_W_uVel_min               =   4.4822851314926E-01
(PID.TID 0000.0001) %MON obc_W_uVel_mean              =   4.4822851314926E-01
(PID.TID 0000.0001) %MON obc_W_uVel_sd                =  -1.9428902930940E-16
(PID.TID 0000.0001) %MON obc_W_uVel_Int               =   4.4822851314926E+05
(PID.TID 0000.0001) // =======================================================
(PID.TID 0000.0001) // End OBCS MONITOR field statistics
(PID.TID 0000.0001) // =======================================================
 cg2d: Sum(rhs),rhsMax =  -5.96484805992503E-11  1.01548053909933E-01
 cg2d: Sum(rhs),rhsMax =  -5.96698107591109E-11  1.01590992092010E-01
 cg2d: Sum(rhs),rhsMax =  -5.96931878926732E-11  1.01627992333614E-01
 cg2d: Sum(rhs),rhsMax =  -5.97374510968862E-11  1.01659889329057E-01
 cg2d: Sum(rhs),rhsMax =  -5.97674514046798E-11  1.01686738559410E-01
 cg2d: Sum(rhs),rhsMax =  -5.97827273796092E-11  1.01707984495836E-01
 cg2d: Sum(rhs),rhsMax =  -5.98213457936314E-11  1.01723370027709E-01
 cg2d: Sum(rhs),rhsMax =  -5.98761279273219E-11  1.01733070256995E-01
 cg2d: Sum(rhs),rhsMax =  -5.99081843161153E-11  1.01737039281398E-01
 cg2d: Sum(rhs),rhsMax =  -5.99774778453632E-11  1.01735584519700E-01
 cg2d: Sum(rhs),rhsMax =  -6.00255158078600E-11  1.01728848812791E-01
 cg2d: Sum(rhs),rhsMax =  -6.00648975002116E-11  1.01717130771770E-01
 cg2d: Sum(rhs),rhsMax =  -6.01329194771516E-11  1.01696419619715E-01
 cg2d: Sum(rhs),rhsMax =  -6.01970140401420E-11  1.01672628406468E-01
 cg2d: Sum(rhs),rhsMax =  -6.02522129411476E-11  1.01645855707426E-01
 cg2d: Sum(rhs),rhsMax =  -6.03067457083384E-11  1.01614632543143E-01
 cg2d: Sum(rhs),rhsMax =  -6.03735533788452E-11  1.01578822390374E-01
 cg2d: Sum(rhs),rhsMax =  -6.04694072592338E-11  1.01538650506300E-01
 cg2d: Sum(rhs),rhsMax =  -6.05380051643678E-11  1.01494438758250E-01
 cg2d: Sum(rhs),rhsMax =  -6.06063393915335E-11  1.01446175843847E-01
 cg2d: Sum(rhs),rhsMax =  -6.06767691646581E-11  1.01394081215393E-01
 cg2d: Sum(rhs),rhsMax =  -6.07684597087044E-11  1.01338653431976E-01
 cg2d: Sum(rhs),rhsMax =  -6.08712524829969E-11  1.01280004349832E-01
 cg2d: Sum(rhs),rhsMax =  -6.09411687779726E-11  1.01218230517461E-01
 cg2d: Sum(rhs),rhsMax =  -6.10387851374128E-11  1.01153874898039E-01
 cg2d: Sum(rhs),rhsMax =  -6.11535266870078E-11  1.01086954074149E-01
 cg2d: Sum(rhs),rhsMax =  -6.12263850729988E-11  1.01017641874194E-01
 cg2d: Sum(rhs),rhsMax =  -6.13086525991235E-11  1.00946315720506E-01
 cg2d: Sum(rhs),rhsMax =  -6.14070738702566E-11  1.00872769091056E-01
 cg2d: Sum(rhs),rhsMax =  -6.14981676694271E-11  1.00797313544895E-01
 cg2d: Sum(rhs),rhsMax =  -6.15772988155072E-11  1.00720104260232E-01
 cg2d: Sum(rhs),rhsMax =  -6.17129680691164E-11  1.00641352392868E-01
 cg2d: Sum(rhs),rhsMax =  -6.17952078396655E-11  1.00562672873897E-01
 cg2d: Sum(rhs),rhsMax =  -6.19118367684024E-11  1.00482307299948E-01
 cg2d: Sum(rhs),rhsMax =  -6.20465068212894E-11  1.00400491459826E-01
 cg2d: Sum(rhs),rhsMax =  -6.21404316891727E-11  1.00318273045954E-01
 cg2d: Sum(rhs),rhsMax =  -6.22565332619729E-11  1.00235543417624E-01
 cg2d: Sum(rhs),rhsMax =  -6.23506246633099E-11  1.00151733649098E-01
 cg2d: Sum(rhs),rhsMax =  -6.24442719754370E-11  1.00068891928803E-01
 cg2d: Sum(rhs),rhsMax =  -6.25318130609287E-11  9.99863908197369E-02
 cg2d: Sum(rhs),rhsMax =  -6.26680929372014E-11  9.99048881597141E-02
 cg2d: Sum(rhs),rhsMax =  -6.27585206025572E-11  9.98244724608271E-02
 cg2d: Sum(rhs),rhsMax =  -6.28882501629846E-11  9.97449468606447E-02
 cg2d: Sum(rhs),rhsMax =  -6.30460683659351E-11  9.96672285174942E-02
 cg2d: Sum(rhs),rhsMax =  -6.31853458443743E-11  9.95916195617682E-02
 cg2d: Sum(rhs),rhsMax =  -6.33130770033574E-11  9.95172475217632E-02
 cg2d: Sum(rhs),rhsMax =  -6.34623464890183E-11  9.94441640526784E-02
 cg2d: Sum(rhs),rhsMax =  -6.35804187076872E-11  9.93728066447518E-02
 cg2d: Sum(rhs),rhsMax =  -6.37437325146095E-11  9.93041616493352E-02
 cg2d: Sum(rhs),rhsMax =  -6.38837316380148E-11  9.92384088280467E-02
 cg2d: Sum(rhs),rhsMax =  -6.40035802135230E-11  9.91757318002704E-02
 cg2d: Sum(rhs),rhsMax =  -6.41239839005436E-11  9.91165532009833E-02
 cg2d: Sum(rhs),rhsMax =  -6.42375042048116E-11  9.90614991517450E-02
 cg2d: Sum(rhs),rhsMax =  -6.43172182179796E-11  9.90118474390309E-02
 cg2d: Sum(rhs),rhsMax =  -6.44362341262195E-11  9.89679505271949E-02
 cg2d: Sum(rhs),rhsMax =  -6.45308806390688E-11  9.89298697123287E-02
 cg2d: Sum(rhs),rhsMax =  -6.46228626166589E-11  9.88977947852921E-02
 cg2d: Sum(rhs),rhsMax =  -6.47087383676137E-11  9.88724102506536E-02
 cg2d: Sum(rhs),rhsMax =  -6.48051612373024E-11  9.88541931594556E-02
 cg2d: Sum(rhs),rhsMax =  -6.48975317929512E-11  9.88432708584537E-02
 cg2d: Sum(rhs),rhsMax =  -6.49605369495987E-11  9.88393720361635E-02
 cg2d: Sum(rhs),rhsMax =  -6.50280940206471E-11  9.88422652626985E-02
 cg2d: Sum(rhs),rhsMax =  -6.50645093358548E-11  9.88520217349543E-02
 cg2d: Sum(rhs),rhsMax =  -6.51095288795034E-11  9.88733498723307E-02
 cg2d: Sum(rhs),rhsMax =  -6.51702025677992E-11  9.88992119561083E-02
 cg2d: Sum(rhs),rhsMax =  -6.52238818510398E-11  9.88898778111413E-02
 cg2d: Sum(rhs),rhsMax =  -6.52730647310307E-11  9.89221293584628E-02
 cg2d: Sum(rhs),rhsMax =  -6.52567999637199E-11  9.89668704215322E-02
 cg2d: Sum(rhs),rhsMax =  -6.52584652982569E-11  9.90534228933159E-02
 cg2d: Sum(rhs),rhsMax =  -6.52627396569017E-11  9.90973869417254E-02
 cg2d: Sum(rhs),rhsMax =  -6.52495280029086E-11  9.91733640839981E-02
 cg2d: Sum(rhs),rhsMax =  -6.51895759595789E-11  9.92602563053961E-02
 cg2d: Sum(rhs),rhsMax =  -6.51917964056281E-11  9.93124745954507E-02
 cg2d: Sum(rhs),rhsMax =  -6.52056741934359E-11  9.94206082318294E-02
 cg2d: Sum(rhs),rhsMax =  -6.51394493900170E-11  9.95389751565592E-02
 cg2d: Sum(rhs),rhsMax =  -6.50577369754046E-11  9.96656012379151E-02
 cg2d: Sum(rhs),rhsMax =  -6.50078879615990E-11  9.97997913597080E-02
 cg2d: Sum(rhs),rhsMax =  -6.49447717826490E-11  9.99392847875733E-02
 cg2d: Sum(rhs),rhsMax =  -6.48747722209464E-11  1.00082596325218E-01
 cg2d: Sum(rhs),rhsMax =  -6.47960574085005E-11  1.00228744901139E-01
 cg2d: Sum(rhs),rhsMax =  -6.46915854218832E-11  1.00376796688737E-01
 cg2d: Sum(rhs),rhsMax =  -6.46807052362419E-11  1.00525262193726E-01
 cg2d: Sum(rhs),rhsMax =  -6.46006581561664E-11  1.00672373990487E-01
 cg2d: Sum(rhs),rhsMax =  -6.45035136415117E-11  1.00817275094969E-01
 cg2d: Sum(rhs),rhsMax =  -6.43759490159823E-11  1.00959463292395E-01
 cg2d: Sum(rhs),rhsMax =  -6.42464415001598E-11  1.01098049656408E-01
 cg2d: Sum(rhs),rhsMax =  -6.41409148016692E-11  1.01232229346164E-01
 cg2d: Sum(rhs),rhsMax =  -6.40399400175795E-11  1.01361443504465E-01
 cg2d: Sum(rhs),rhsMax =  -6.39149289050067E-11  1.01485088930039E-01
 cg2d: Sum(rhs),rhsMax =  -6.37771502276507E-11  1.01602516187951E-01
 cg2d: Sum(rhs),rhsMax =  -6.36569685852351E-11  1.01713346014017E-01
 cg2d: Sum(rhs),rhsMax =  -6.35471120169484E-11  1.01816967619457E-01
 cg2d: Sum(rhs),rhsMax =  -6.34940988675226E-11  1.01912962644327E-01
 cg2d: Sum(rhs),rhsMax =  -6.33767482938197E-11  1.02000997287758E-01
 cg2d: Sum(rhs),rhsMax =  -6.32610075435025E-11  1.02099866993672E-01
 cg2d: Sum(rhs),rhsMax =  -6.31685259655512E-11  1.02176667147439E-01
 cg2d: Sum(rhs),rhsMax =  -6.30973606696728E-11  1.02258513407264E-01
 cg2d: Sum(rhs),rhsMax =  -6.30741570084581E-11  1.02323565365202E-01
 cg2d: Sum(rhs),rhsMax =  -6.30391294720312E-11  1.02378282883289E-01
 cg2d: Sum(rhs),rhsMax =  -6.29846730326733E-11  1.02423331151108E-01
 cg2d: Sum(rhs),rhsMax =  -6.29605256818877E-11  1.02458638035802E-01
 cg2d: Sum(rhs),rhsMax =  -6.29418184239228E-11  1.02484621531316E-01
 cg2d: Sum(rhs),rhsMax =  -6.29185592515569E-11  1.02501902715080E-01
 cg2d: Sum(rhs),rhsMax =  -6.28954111014934E-11  1.02509178413199E-01
 cg2d: Sum(rhs),rhsMax =  -6.28509466693572E-11  1.02509219645193E-01
 cg2d: Sum(rhs),rhsMax =  -6.28126439750076E-11  1.02501368665606E-01
 cg2d: Sum(rhs),rhsMax =  -6.28003760105855E-11  1.02487565751774E-01
 cg2d: Sum(rhs),rhsMax =  -6.27254359564233E-11  1.02468930497615E-01
 cg2d: Sum(rhs),rhsMax =  -6.27010665610328E-11  1.02446011781655E-01
 cg2d: Sum(rhs),rhsMax =  -6.26421692295764E-11  1.02419572242299E-01
 cg2d: Sum(rhs),rhsMax =  -6.25972607082304E-11  1.02390903646210E-01
 cg2d: Sum(rhs),rhsMax =  -6.25027807288348E-11  1.02360770602716E-01
 cg2d: Sum(rhs),rhsMax =  -6.24699736384571E-11  1.02329787136984E-01
 cg2d: Sum(rhs),rhsMax =  -6.24125195969327E-11  1.02298916623895E-01
 cg2d: Sum(rhs),rhsMax =  -6.23965878965294E-11  1.02268286656924E-01
 cg2d: Sum(rhs),rhsMax =  -6.23181506398396E-11  1.02238501367788E-01
 cg2d: Sum(rhs),rhsMax =  -6.22820683915393E-11  1.02210365444227E-01
 cg2d: Sum(rhs),rhsMax =  -6.22247253723174E-11  1.02184878286752E-01
 cg2d: Sum(rhs),rhsMax =  -6.21902529474028E-11  1.02162871231772E-01
 cg2d: Sum(rhs),rhsMax =  -6.21723783567063E-11  1.02145513812924E-01
 cg2d: Sum(rhs),rhsMax =  -6.21758200480826E-11  1.02133154634137E-01
 cg2d: Sum(rhs),rhsMax =  -6.21657170185586E-11  1.02126355467649E-01
 cg2d: Sum(rhs),rhsMax =  -6.21168116943238E-11  1.02125297403266E-01
 cg2d: Sum(rhs),rhsMax =  -6.21194762295829E-11  1.02130329968423E-01
 cg2d: Sum(rhs),rhsMax =  -6.20771212211935E-11  1.02141895267159E-01
 cg2d: Sum(rhs),rhsMax =  -6.20244966498262E-11  1.02159900049080E-01
 cg2d: Sum(rhs),rhsMax =  -6.19693740766536E-11  1.02184432489631E-01
 cg2d: Sum(rhs),rhsMax =  -6.19279072466838E-11  1.02214215929099E-01
 cg2d: Sum(rhs),rhsMax =  -6.19028162063273E-11  1.02210711563418E-01
 cg2d: Sum(rhs),rhsMax =  -6.18773920990634E-11  1.02179976934295E-01
 cg2d: Sum(rhs),rhsMax =  -6.17833006977264E-11  1.02257592983941E-01
 cg2d: Sum(rhs),rhsMax =  -6.17221829202208E-11  1.02338621602449E-01
 cg2d: Sum(rhs),rhsMax =  -6.16441897527409E-11  1.02421419762272E-01
 cg2d: Sum(rhs),rhsMax =  -6.15484330168670E-11  1.02512455023178E-01
 cg2d: Sum(rhs),rhsMax =  -6.14712170055043E-11  1.02609767396611E-01
 cg2d: Sum(rhs),rhsMax =  -6.13686879091802E-11  1.02710301174447E-01
 cg2d: Sum(rhs),rhsMax =  -6.12793149556978E-11  1.02811955743096E-01
 cg2d: Sum(rhs),rhsMax =  -6.11817263518333E-11  1.02913237795266E-01
 cg2d: Sum(rhs),rhsMax =  -6.10746453411082E-11  1.03013055596110E-01
 cg2d: Sum(rhs),rhsMax =  -6.09762518255508E-11  1.03110299288297E-01
 cg2d: Sum(rhs),rhsMax =  -6.08638694998831E-11  1.03203906142630E-01
 cg2d: Sum(rhs),rhsMax =  -6.07715544553855E-11  1.03292892918129E-01
 cg2d: Sum(rhs),rhsMax =  -6.06815431236640E-11  1.03376429600946E-01
 cg2d: Sum(rhs),rhsMax =  -6.05905603467960E-11  1.03469341519981E-01
 cg2d: Sum(rhs),rhsMax =  -6.05108740892035E-11  1.03547410669097E-01
 cg2d: Sum(rhs),rhsMax =  -6.04531702474986E-11  1.03605946210277E-01
 cg2d: Sum(rhs),rhsMax =  -6.03797012388441E-11  1.03661015154609E-01
 cg2d: Sum(rhs),rhsMax =  -6.03063987636432E-11  1.03706660052157E-01
 cg2d: Sum(rhs),rhsMax =  -6.02632110879853E-11  1.03742222014833E-01
 cg2d: Sum(rhs),rhsMax =  -6.01961258617223E-11  1.03767429638170E-01
 cg2d: Sum(rhs),rhsMax =  -6.01538818756353E-11  1.03782010624327E-01
 cg2d: Sum(rhs),rhsMax =  -6.01266536559564E-11  1.03785964507879E-01
 cg2d: Sum(rhs),rhsMax =  -6.01017846602048E-11  1.03779157968416E-01
 cg2d: Sum(rhs),rhsMax =  -6.00563487829220E-11  1.03761541297093E-01
 cg2d: Sum(rhs),rhsMax =  -6.00115374060906E-11  1.03733190583483E-01
 cg2d: Sum(rhs),rhsMax =  -5.99847255200459E-11  1.03718004530813E-01
 cg2d: Sum(rhs),rhsMax =  -5.99663929623517E-11  1.03678585790318E-01
 cg2d: Sum(rhs),rhsMax =  -5.99298943804172E-11  1.03627512947584E-01
 cg2d: Sum(rhs),rhsMax =  -5.99239269316598E-11  1.03565924064472E-01
 cg2d: Sum(rhs),rhsMax =  -5.99318511484981E-11  1.03493908011623E-01
 cg2d: Sum(rhs),rhsMax =  -5.99141639079370E-11  1.03411646409096E-01
 cg2d: Sum(rhs),rhsMax =  -5.99312682814102E-11  1.03319646825505E-01
 cg2d: Sum(rhs),rhsMax =  -5.99305119419746E-11  1.03218374976205E-01
 cg2d: Sum(rhs),rhsMax =  -5.99451634164527E-11  1.03108648458250E-01
 cg2d: Sum(rhs),rhsMax =  -5.99878757778782E-11  1.02991183094545E-01
 cg2d: Sum(rhs),rhsMax =  -6.00344565726552E-11  1.02866777374652E-01
 cg2d: Sum(rhs),rhsMax =  -6.00543111333590E-11  1.02736297265622E-01
 cg2d: Sum(rhs),rhsMax =  -6.00884619839093E-11  1.02600712302045E-01
 cg2d: Sum(rhs),rhsMax =  -6.01314449621970E-11  1.02461105494951E-01
 cg2d: Sum(rhs),rhsMax =  -6.01992622417669E-11  1.02319391859604E-01
 cg2d: Sum(rhs),rhsMax =  -6.02356081680355E-11  1.02174069294090E-01
 cg2d: Sum(rhs),rhsMax =  -6.02937422211625E-11  1.02027524282608E-01
 cg2d: Sum(rhs),rhsMax =  -6.03492048001364E-11  1.01880552853951E-01
 cg2d: Sum(rhs),rhsMax =  -6.03970276569221E-11  1.01734137414858E-01
 cg2d: Sum(rhs),rhsMax =  -6.04478411769804E-11  1.01589050636480E-01
 cg2d: Sum(rhs),rhsMax =  -6.04678390692115E-11  1.01447866531480E-01
 cg2d: Sum(rhs),rhsMax =  -6.05192146396760E-11  1.01307237680273E-01
 cg2d: Sum(rhs),rhsMax =  -6.05423627897395E-11  1.01169800720761E-01
 cg2d: Sum(rhs),rhsMax =  -6.05984012969074E-11  1.01037885409535E-01
 cg2d: Sum(rhs),rhsMax =  -6.06295014193847E-11  1.00911603199260E-01
 cg2d: Sum(rhs),rhsMax =  -6.06715094830790E-11  1.00790544427809E-01
 cg2d: Sum(rhs),rhsMax =  -6.06726752172548E-11  1.00673923081912E-01
 cg2d: Sum(rhs),rhsMax =  -6.06961425564378E-11  1.00565579978534E-01
 cg2d: Sum(rhs),rhsMax =  -6.07296435362059E-11  1.00465288925935E-01
 cg2d: Sum(rhs),rhsMax =  -6.07373595862271E-11  1.00372864546698E-01
 cg2d: Sum(rhs),rhsMax =  -6.07508210404006E-11  1.00288047792214E-01
 cg2d: Sum(rhs),rhsMax =  -6.07602024249587E-11  1.00210546258370E-01
 cg2d: Sum(rhs),rhsMax =  -6.07583150458169E-11  1.00140132263452E-01
 cg2d: Sum(rhs),rhsMax =  -6.07480732384147E-11  1.00076660296898E-01
 cg2d: Sum(rhs),rhsMax =  -6.07465744373314E-11  1.00019070349076E-01
 cg2d: Sum(rhs),rhsMax =  -6.06820149684495E-11  9.99666180628648E-02
 cg2d: Sum(rhs),rhsMax =  -6.06110439616003E-11  9.99188313115468E-02
 cg2d: Sum(rhs),rhsMax =  -6.05338834613889E-11  9.98751786411801E-02
 cg2d: Sum(rhs),rhsMax =  -6.04609973198222E-11  9.98352408676641E-02
 cg2d: Sum(rhs),rhsMax =  -6.04173100438032E-11  9.97981112051651E-02
 cg2d: Sum(rhs),rhsMax =  -6.04568617390555E-11  9.96022508367615E-02
 cg2d: Sum(rhs),rhsMax =  -6.04260808056978E-11  9.95793198139742E-02
 cg2d: Sum(rhs),rhsMax =  -6.04080674371232E-11  9.95660219209139E-02
 cg2d: Sum(rhs),rhsMax =  -6.03640193386212E-11  9.95591772413414E-02
 cg2d: Sum(rhs),rhsMax =  -6.03311289815167E-11  9.95592836410285E-02
 cg2d: Sum(rhs),rhsMax =  -6.03080363426045E-11  9.95611114370103E-02
 cg2d: Sum(rhs),rhsMax =  -6.02830563245504E-11  9.95621857804744E-02
 cg2d: Sum(rhs),rhsMax =  -6.02391470039265E-11  9.95759721388604E-02
 cg2d: Sum(rhs),rhsMax =  -6.02245475711527E-11  9.95735458236195E-02
 cg2d: Sum(rhs),rhsMax =  -6.02258798387822E-11  9.95650013286406E-02
 cg2d: Sum(rhs),rhsMax =  -6.01846905645687E-11  9.95498552683882E-02
 cg2d: Sum(rhs),rhsMax =  -6.01425020896329E-11  9.95273719063764E-02
 cg2d: Sum(rhs),rhsMax =  -6.01176886050325E-11  9.94972368473303E-02
 cg2d: Sum(rhs),rhsMax =  -6.00918759197100E-11  9.94591504823645E-02
 cg2d: Sum(rhs),rhsMax =  -6.00795524441367E-11  9.94130540385021E-02
 cg2d: Sum(rhs),rhsMax =  -6.00707816822421E-11  9.93594055999553E-02
 cg2d: Sum(rhs),rhsMax =  -6.00722249721741E-11  9.92981980148290E-02
 cg2d: Sum(rhs),rhsMax =  -6.00816063567322E-11  9.92293557279059E-02
 cg2d: Sum(rhs),rhsMax =  -6.01045324621907E-11  9.91530294621328E-02
 cg2d: Sum(rhs),rhsMax =  -6.01136362909926E-11  9.90697474939425E-02
 cg2d: Sum(rhs),rhsMax =  -6.01267369226832E-11  9.89801356243427E-02
 cg2d: Sum(rhs),rhsMax =  -6.01356187068802E-11  9.89120702765430E-02
 cg2d: Sum(rhs),rhsMax =  -6.01557692547772E-11  9.88215621740902E-02
 cg2d: Sum(rhs),rhsMax =  -6.01863003879544E-11  9.87243564822446E-02
 cg2d: Sum(rhs),rhsMax =  -6.02141669858725E-11  9.86212448106080E-02
 cg2d: Sum(rhs),rhsMax =  -6.02464189647378E-11  9.85137438662127E-02
 cg2d: Sum(rhs),rhsMax =  -6.02938254878893E-11  9.84021705721203E-02
 cg2d: Sum(rhs),rhsMax =  -6.03467831261639E-11  9.82876317039098E-02
 cg2d: Sum(rhs),rhsMax =  -6.04005734317070E-11  9.81713047273771E-02
 cg2d: Sum(rhs),rhsMax =  -6.04702399265022E-11  9.80541860814033E-02
 cg2d: Sum(rhs),rhsMax =  -6.04686856142678E-11  9.79376764337800E-02
 cg2d: Sum(rhs),rhsMax =  -6.04583605401388E-11  9.78232492585812E-02
 cg2d: Sum(rhs),rhsMax =  -6.04568617390555E-11  9.77117776032669E-02
 cg2d: Sum(rhs),rhsMax =  -6.04762906419865E-11  9.76050638968742E-02
 cg2d: Sum(rhs),rhsMax =  -6.04709060603170E-11  9.75052803965234E-02
 cg2d: Sum(rhs),rhsMax =  -6.04608585419442E-11  9.74140365481208E-02
 cg2d: Sum(rhs),rhsMax =  -6.04723493502490E-11  9.73312729214861E-02
 cg2d: Sum(rhs),rhsMax =  -6.04987171470839E-11  9.72584093821208E-02
 cg2d: Sum(rhs),rhsMax =  -6.05132610687065E-11  9.71955267858391E-02
 cg2d: Sum(rhs),rhsMax =  -6.05244188101040E-11  9.71432127592061E-02
 cg2d: Sum(rhs),rhsMax =  -6.05212546744838E-11  9.71029195377221E-02
 cg2d: Sum(rhs),rhsMax =  -6.04822303351682E-11  9.70744473865268E-02
 cg2d: Sum(rhs),rhsMax =  -6.05240302320453E-11  9.70581317575161E-02
 cg2d: Sum(rhs),rhsMax =  -6.05630545713609E-11  9.70546357708181E-02
 cg2d: Sum(rhs),rhsMax =  -6.05898664574056E-11  9.70640808116811E-02
 cg2d: Sum(rhs),rhsMax =  -6.05925309926647E-11  9.70877960522557E-02
 cg2d: Sum(rhs),rhsMax =  -6.05854255653071E-11  9.71228739656682E-02
 cg2d: Sum(rhs),rhsMax =  -6.05731576008850E-11  9.71714505313780E-02
 cg2d: Sum(rhs),rhsMax =  -6.05449579360595E-11  9.72333542047451E-02
 cg2d: Sum(rhs),rhsMax =  -6.05209771187276E-11  9.73099988626377E-02
 cg2d: Sum(rhs),rhsMax =  -6.04900018963406E-11  9.73971403049963E-02
 cg2d: Sum(rhs),rhsMax =  -6.04316596763965E-11  9.75009056078495E-02
 cg2d: Sum(rhs),rhsMax =  -6.03881944449824E-11  9.76153032097102E-02
 cg2d: Sum(rhs),rhsMax =  -6.03150862588109E-11  9.77420869658433E-02
 cg2d: Sum(rhs),rhsMax =  -6.02895511292445E-11  9.78378944269611E-02
 cg2d: Sum(rhs),rhsMax =  -6.02093930268666E-11  9.80308842554453E-02
 cg2d: Sum(rhs),rhsMax =  -6.01660943289062E-11  9.81540664750405E-02
 cg2d: Sum(rhs),rhsMax =  -6.01305116809669E-11  9.82522507478333E-02
 cg2d: Sum(rhs),rhsMax =  -6.00388627702841E-11  9.84528582345280E-02
 cg2d: Sum(rhs),rhsMax =  -5.99071903195636E-11  9.87210495469364E-02
 cg2d: Sum(rhs),rhsMax =  -5.98097682491527E-11  9.89426177730640E-02
 cg2d: Sum(rhs),rhsMax =  -5.97223936971147E-11  9.91502868361290E-02
 cg2d: Sum(rhs),rhsMax =  -5.96314664313979E-11  9.93736333667622E-02
 cg2d: Sum(rhs),rhsMax =  -5.95139493242414E-11  9.96126200286061E-02
 cg2d: Sum(rhs),rhsMax =  -5.94350679783417E-11  9.98361141401467E-02
 cg2d: Sum(rhs),rhsMax =  -5.93445848018348E-11  1.00055972905277E-01
 cg2d: Sum(rhs),rhsMax =  -5.92544346922352E-11  1.00270151071198E-01
 cg2d: Sum(rhs),rhsMax =  -5.91908189129242E-11  1.00482495974146E-01
 cg2d: Sum(rhs),rhsMax =  -5.91279247785792E-11  1.00689766826664E-01
 cg2d: Sum(rhs),rhsMax =  -5.90843485248627E-11  1.00890006474405E-01
 cg2d: Sum(rhs),rhsMax =  -5.90170690095704E-11  1.01083225754087E-01
 cg2d: Sum(rhs),rhsMax =  -5.89749360457859E-11  1.01265274564272E-01
 cg2d: Sum(rhs),rhsMax =  -5.89326365485476E-11  1.01441268709385E-01
 cg2d: Sum(rhs),rhsMax =  -5.89018278596143E-11  1.01604126990622E-01
 cg2d: Sum(rhs),rhsMax =  -5.88630255649036E-11  1.01754929363021E-01
 cg2d: Sum(rhs),rhsMax =  -5.88216142460851E-11  1.01892518267254E-01
 cg2d: Sum(rhs),rhsMax =  -5.87807580387789E-11  1.02017376607089E-01
 cg2d: Sum(rhs),rhsMax =  -5.87426218778830E-11  1.02128517887264E-01
 cg2d: Sum(rhs),rhsMax =  -5.87226378634398E-11  1.02229547410462E-01
 cg2d: Sum(rhs),rhsMax =  -5.86879156383446E-11  1.02316913505090E-01
 cg2d: Sum(rhs),rhsMax =  -5.86750092956834E-11  1.02390611848449E-01
 cg2d: Sum(rhs),rhsMax =  -5.87089266090857E-11  1.02449603521457E-01
 cg2d: Sum(rhs),rhsMax =  -5.86990733797421E-11  1.02495147137866E-01
 cg2d: Sum(rhs),rhsMax =  -5.87173087929216E-11  1.02532346149807E-01
 cg2d: Sum(rhs),rhsMax =  -5.87492277048796E-11  1.02555355262431E-01
 cg2d: Sum(rhs),rhsMax =  -5.87798143492080E-11  1.02563489003519E-01
 cg2d: Sum(rhs),rhsMax =  -5.87787873929102E-11  1.02588409670066E-01
 cg2d: Sum(rhs),rhsMax =  -5.88322168759703E-11  1.02575782244596E-01
 cg2d: Sum(rhs),rhsMax =  -5.89074344858886E-11  1.02437068121160E-01
 cg2d: Sum(rhs),rhsMax =  -5.89578941223579E-11  1.02420932037286E-01
 cg2d: Sum(rhs),rhsMax =  -5.90075766027098E-11  1.02392518634641E-01
 cg2d: Sum(rhs),rhsMax =  -5.90633930652729E-11  1.02350543786837E-01
 cg2d: Sum(rhs),rhsMax =  -5.91512672176719E-11  1.02299954423344E-01
 cg2d: Sum(rhs),rhsMax =  -5.92184912218130E-11  1.02240708062762E-01
 cg2d: Sum(rhs),rhsMax =  -5.92971505231077E-11  1.02173088806384E-01
 cg2d: Sum(rhs),rhsMax =  -5.93877585997049E-11  1.02096812137382E-01
 cg2d: Sum(rhs),rhsMax =  -5.94743559956257E-11  1.02012765373334E-01
 cg2d: Sum(rhs),rhsMax =  -5.95569704664456E-11  1.01927590502038E-01
 cg2d: Sum(rhs),rhsMax =  -5.96520055573535E-11  1.01830059326494E-01
 cg2d: Sum(rhs),rhsMax =  -5.97796950829732E-11  1.01725896226293E-01
 cg2d: Sum(rhs),rhsMax =  -5.98697064146947E-11  1.01615896681680E-01
 cg2d: Sum(rhs),rhsMax =  -5.99923305477645E-11  1.01500716009583E-01
 cg2d: Sum(rhs),rhsMax =  -6.00975658127112E-11  1.01379775168539E-01
 cg2d: Sum(rhs),rhsMax =  -6.02013161543624E-11  1.01255159525329E-01
 cg2d: Sum(rhs),rhsMax =  -6.03489411221680E-11  1.01126268400664E-01
 cg2d: Sum(rhs),rhsMax =  -6.04577984897325E-11  1.00995588239162E-01
 cg2d: Sum(rhs),rhsMax =  -6.06019262550106E-11  1.00863551647077E-01
 cg2d: Sum(rhs),rhsMax =  -6.07238946626065E-11  1.00730480013147E-01
 cg2d: Sum(rhs),rhsMax =  -6.08725431172630E-11  1.00595386761950E-01
 cg2d: Sum(rhs),rhsMax =  -6.10112099730387E-11  1.00460548017376E-01
 cg2d: Sum(rhs),rhsMax =  -6.11343412958848E-11  1.00326435433691E-01
 cg2d: Sum(rhs),rhsMax =  -6.12711877762129E-11  1.00193489774495E-01
 cg2d: Sum(rhs),rhsMax =  -6.14042948432481E-11  1.00081283281448E-01
 cg2d: Sum(rhs),rhsMax =  -6.15084649879805E-11  9.99578599279998E-02
 cg2d: Sum(rhs),rhsMax =  -6.16545148268699E-11  9.98354241644193E-02
 cg2d: Sum(rhs),rhsMax =  -6.17594933527421E-11  9.97312894800856E-02
 cg2d: Sum(rhs),rhsMax =  -6.18680939812322E-11  9.96178631630047E-02
 cg2d: Sum(rhs),rhsMax =  -6.19935214274392E-11  9.95070116685499E-02
 cg2d: Sum(rhs),rhsMax =  -6.21097617781174E-11  9.93966848506494E-02
 cg2d: Sum(rhs),rhsMax =  -6.22321916221580E-11  9.92899732948782E-02
 cg2d: Sum(rhs),rhsMax =  -6.23634616170321E-11  9.91871568356741E-02
 cg2d: Sum(rhs),rhsMax =  -6.24802848347983E-11  9.90871291002376E-02
 cg2d: Sum(rhs),rhsMax =  -6.26142332427193E-11  9.89913646121295E-02
 cg2d: Sum(rhs),rhsMax =  -6.27208840420224E-11  9.89043539153907E-02
 cg2d: Sum(rhs),rhsMax =  -6.28385260492692E-11  9.88255672720956E-02
 cg2d: Sum(rhs),rhsMax =  -6.29435392696109E-11  9.87549301974740E-02
 cg2d: Sum(rhs),rhsMax =  -6.30346053132058E-11  9.86914240838689E-02
 cg2d: Sum(rhs),rhsMax =  -6.31409924345405E-11  9.86353644036711E-02
 cg2d: Sum(rhs),rhsMax =  -6.32160435110052E-11  9.85871337214071E-02
 cg2d: Sum(rhs),rhsMax =  -6.32912888764992E-11  9.85460397554964E-02
 cg2d: Sum(rhs),rhsMax =  -6.33832986096650E-11  9.85138409405351E-02
 cg2d: Sum(rhs),rhsMax =  -6.34369778929056E-11  9.84919494504291E-02
 cg2d: Sum(rhs),rhsMax =  -6.34878538630090E-11  9.84798358384086E-02
 cg2d: Sum(rhs),rhsMax =  -6.35393404557760E-11  9.84816878761302E-02
 cg2d: Sum(rhs),rhsMax =  -6.35807240190189E-11  9.84980421865373E-02
 cg2d: Sum(rhs),rhsMax =  -6.35876906684985E-11  9.85523769745123E-02
 cg2d: Sum(rhs),rhsMax =  -6.36680708154813E-11  9.84784583232984E-02
 cg2d: Sum(rhs),rhsMax =  -6.36725949743067E-11  9.85349000920267E-02
 cg2d: Sum(rhs),rhsMax =  -6.36548036503370E-11  9.86185533890275E-02
 cg2d: Sum(rhs),rhsMax =  -6.36259933628480E-11  9.87234459667505E-02
 cg2d: Sum(rhs),rhsMax =  -6.36208863369347E-11  9.88477738116855E-02
 cg2d: Sum(rhs),rhsMax =  -6.35655972303084E-11  9.89882542661743E-02
 cg2d: Sum(rhs),rhsMax =  -6.35055341646762E-11  9.91425088229499E-02
 cg2d: Sum(rhs),rhsMax =  -6.34406971400381E-11  9.93091619322980E-02
 cg2d: Sum(rhs),rhsMax =  -6.34042263136791E-11  9.94865269262840E-02
 cg2d: Sum(rhs),rhsMax =  -6.33955110629358E-11  9.96737037060024E-02
 cg2d: Sum(rhs),rhsMax =  -6.33248453674184E-11  9.98695973993516E-02
 cg2d: Sum(rhs),rhsMax =  -6.32741636863443E-11  1.00073609983929E-01
 cg2d: Sum(rhs),rhsMax =  -6.32064400818422E-11  1.00284619820909E-01
 cg2d: Sum(rhs),rhsMax =  -6.31455998600927E-11  1.00501977490658E-01
 cg2d: Sum(rhs),rhsMax =  -6.31010799168052E-11  1.00724404056712E-01
 cg2d: Sum(rhs),rhsMax =  -6.30311913774051E-11  1.00951084373516E-01
 cg2d: Sum(rhs),rhsMax =  -6.29609142599463E-11  1.01181078502383E-01
 cg2d: Sum(rhs),rhsMax =  -6.28880281183797E-11  1.01413367648679E-01
 cg2d: Sum(rhs),rhsMax =  -6.28090912613288E-11  1.01648147771660E-01
 cg2d: Sum(rhs),rhsMax =  -6.27475293946134E-11  1.01883194579724E-01
 cg2d: Sum(rhs),rhsMax =  -6.26830254368826E-11  1.02117685218646E-01
 cg2d: Sum(rhs),rhsMax =  -6.26011464888165E-11  1.02352118228588E-01
 cg2d: Sum(rhs),rhsMax =  -6.25239304774539E-11  1.02586927850407E-01
 cg2d: Sum(rhs),rhsMax =  -6.24250096059598E-11  1.02820450135247E-01
 cg2d: Sum(rhs),rhsMax =  -6.23253670894997E-11  1.03052668505199E-01
 cg2d: Sum(rhs),rhsMax =  -6.22417672957454E-11  1.03282825308719E-01
 cg2d: Sum(rhs),rhsMax =  -6.21425133573439E-11  1.03509873322970E-01
 cg2d: Sum(rhs),rhsMax =  -6.20705153941969E-11  1.03733038495782E-01
 cg2d: Sum(rhs),rhsMax =  -6.19764239928600E-11  1.03950445916597E-01
 cg2d: Sum(rhs),rhsMax =  -6.18862183721092E-11  1.04162607975605E-01
 cg2d: Sum(rhs),rhsMax =  -6.18247120165449E-11  1.04369506023744E-01
 cg2d: Sum(rhs),rhsMax =  -6.17204620745326E-11  1.04569940331988E-01
 cg2d: Sum(rhs),rhsMax =  -6.16419693066916E-11  1.04761077235501E-01
 cg2d: Sum(rhs),rhsMax =  -6.15689166316713E-11  1.04939683788598E-01
 cg2d: Sum(rhs),rhsMax =  -6.15394402103675E-11  1.05104623231885E-01
 cg2d: Sum(rhs),rhsMax =  -6.14652218011713E-11  1.05255899092424E-01
 cg2d: Sum(rhs),rhsMax =  -6.14403528054197E-11  1.05393153781346E-01
 cg2d: Sum(rhs),rhsMax =  -6.13947226391076E-11  1.05515909552605E-01
 cg2d: Sum(rhs),rhsMax =  -6.13504802515763E-11  1.05624958403185E-01
 cg2d: Sum(rhs),rhsMax =  -6.13224471202045E-11  1.05720900485141E-01
 cg2d: Sum(rhs),rhsMax =  -6.13220030309947E-11  1.05803641466822E-01
 cg2d: Sum(rhs),rhsMax =  -6.12941919442278E-11  1.05872578484157E-01
 cg2d: Sum(rhs),rhsMax =  -6.12688233481151E-11  1.05927339265203E-01
 cg2d: Sum(rhs),rhsMax =  -6.12770945096486E-11  1.05967565072690E-01
 cg2d: Sum(rhs),rhsMax =  -6.13136208471587E-11  1.05987365229522E-01
 cg2d: Sum(rhs),rhsMax =  -6.13574191454802E-11  1.05991452857928E-01
 cg2d: Sum(rhs),rhsMax =  -6.14083783823105E-11  1.05984115320580E-01
 cg2d: Sum(rhs),rhsMax =  -6.14250317276799E-11  1.05963374220487E-01
 cg2d: Sum(rhs),rhsMax =  -6.14870931947564E-11  1.05927304263598E-01
 cg2d: Sum(rhs),rhsMax =  -6.15743012133407E-11  1.05874877604646E-01
 cg2d: Sum(rhs),rhsMax =  -6.16374729034419E-11  1.05806205084234E-01
 cg2d: Sum(rhs),rhsMax =  -6.16875439618525E-11  1.05722084879164E-01
 cg2d: Sum(rhs),rhsMax =  -6.17696449545235E-11  1.05623272249571E-01
 cg2d: Sum(rhs),rhsMax =  -6.19321260941774E-11  1.05510444277266E-01
 cg2d: Sum(rhs),rhsMax =  -6.19513329525034E-11  1.05384365217896E-01
 cg2d: Sum(rhs),rhsMax =  -6.20399287498685E-11  1.05245586736009E-01
 cg2d: Sum(rhs),rhsMax =  -6.21104834230835E-11  1.05094704578726E-01
 cg2d: Sum(rhs),rhsMax =  -6.22043527798155E-11  1.04932247804618E-01
 cg2d: Sum(rhs),rhsMax =  -6.22872864397550E-11  1.04758935216984E-01
 cg2d: Sum(rhs),rhsMax =  -6.23985862979737E-11  1.04575455520966E-01
 cg2d: Sum(rhs),rhsMax =  -6.25109963792170E-11  1.04382723808571E-01
 cg2d: Sum(rhs),rhsMax =  -6.26182439233958E-11  1.04181527958904E-01
 cg2d: Sum(rhs),rhsMax =  -6.27159435495628E-11  1.03972338727007E-01
 cg2d: Sum(rhs),rhsMax =  -6.28191942908529E-11  1.03756063838617E-01
 cg2d: Sum(rhs),rhsMax =  -6.29311602828864E-11  1.03533265288180E-01
 cg2d: Sum(rhs),rhsMax =  -6.30333008011519E-11  1.03304729058077E-01
 cg2d: Sum(rhs),rhsMax =  -6.31393271000036E-11  1.03071344560561E-01
 cg2d: Sum(rhs),rhsMax =  -6.32531804711789E-11  1.02834126101504E-01
 cg2d: Sum(rhs),rhsMax =  -6.33770258495758E-11  1.02594061817206E-01
 cg2d: Sum(rhs),rhsMax =  -6.34678420929902E-11  1.02352255498021E-01
 cg2d: Sum(rhs),rhsMax =  -6.35693719885921E-11  1.02130787154143E-01
 cg2d: Sum(rhs),rhsMax =  -6.36918850993595E-11  1.01893901258175E-01
 cg2d: Sum(rhs),rhsMax =  -6.37963570859768E-11  1.01671785331858E-01
 cg2d: Sum(rhs),rhsMax =  -6.38884500858694E-11  1.01441775871953E-01
 cg2d: Sum(rhs),rhsMax =  -6.40231756499077E-11  1.01187978648932E-01
 cg2d: Sum(rhs),rhsMax =  -6.41159347836151E-11  1.00949538833263E-01
 cg2d: Sum(rhs),rhsMax =  -6.42286224206146E-11  1.00715641667394E-01
 cg2d: Sum(rhs),rhsMax =  -6.42810249473769E-11  1.00486733162973E-01
 cg2d: Sum(rhs),rhsMax =  -6.44057585041935E-11  1.00263276243158E-01
 cg2d: Sum(rhs),rhsMax =  -6.45025699519408E-11  1.00046225810645E-01
 cg2d: Sum(rhs),rhsMax =  -6.45781761399178E-11  9.98609516077251E-02
 cg2d: Sum(rhs),rhsMax =  -6.46204756371560E-11  9.96691999427609E-02
 cg2d: Sum(rhs),rhsMax =  -6.47082387672526E-11  9.94846195761884E-02
 cg2d: Sum(rhs),rhsMax =  -6.47792930408286E-11  9.92784455475690E-02
 cg2d: Sum(rhs),rhsMax =  -6.48486819798677E-11  9.91036597960274E-02
 cg2d: Sum(rhs),rhsMax =  -6.48961995253217E-11  9.89415901452672E-02
 cg2d: Sum(rhs),rhsMax =  -6.49331699520417E-11  9.87911730133434E-02
 cg2d: Sum(rhs),rhsMax =  -6.49512665873431E-11  9.86535444919533E-02
 cg2d: Sum(rhs),rhsMax =  -6.49489351189914E-11  9.85314101463182E-02
 cg2d: Sum(rhs),rhsMax =  -6.49642561967312E-11  9.84271941331584E-02
 cg2d: Sum(rhs),rhsMax =  -6.49194031865363E-11  9.83631167338451E-02
 cg2d: Sum(rhs),rhsMax =  -6.49131859375984E-11  9.83012441885950E-02
 cg2d: Sum(rhs),rhsMax =  -6.48786580015326E-11  9.82538139020454E-02
 cg2d: Sum(rhs),rhsMax =  -6.48261444524678E-11  9.82212173335262E-02
 cg2d: Sum(rhs),rhsMax =  -6.47470410619633E-11  9.81718476735171E-02
 cg2d: Sum(rhs),rhsMax =  -6.46875886189946E-11  9.81566458349219E-02
 cg2d: Sum(rhs),rhsMax =  -6.45965503309753E-11  9.81574753388325E-02
 cg2d: Sum(rhs),rhsMax =  -6.45209996541496E-11  9.81733914726263E-02
 cg2d: Sum(rhs),rhsMax =  -6.43828323987350E-11  9.82045492356938E-02
 cg2d: Sum(rhs),rhsMax =  -6.42862429955926E-11  9.82494493449061E-02
 cg2d: Sum(rhs),rhsMax =  -6.41544040114184E-11  9.83071110981636E-02
 cg2d: Sum(rhs),rhsMax =  -6.40294484099968E-11  9.83766370171062E-02
 cg2d: Sum(rhs),rhsMax =  -6.38853692169761E-11  9.84773069608260E-02
 cg2d: Sum(rhs),rhsMax =  -6.37279118365086E-11  9.85757255187634E-02
 cg2d: Sum(rhs),rhsMax =  -6.35695940331971E-11  9.86813677949803E-02
 cg2d: Sum(rhs),rhsMax =  -6.34022001566592E-11  9.87936432243705E-02
 cg2d: Sum(rhs),rhsMax =  -6.32162655556101E-11  9.89114210931390E-02
 cg2d: Sum(rhs),rhsMax =  -6.30403507173583E-11  9.90332672276514E-02
 cg2d: Sum(rhs),rhsMax =  -6.29265528573342E-11  9.91575565194828E-02
 cg2d: Sum(rhs),rhsMax =  -6.28184448903113E-11  9.92857377046352E-02
 cg2d: Sum(rhs),rhsMax =  -6.26803331460479E-11  9.94157977066061E-02
 cg2d: Sum(rhs),rhsMax =  -6.25712259783029E-11  9.95469891962629E-02
 cg2d: Sum(rhs),rhsMax =  -6.24321427888930E-11  9.96783059685360E-02
 cg2d: Sum(rhs),rhsMax =  -6.23087414997059E-11  9.98088290442794E-02
 cg2d: Sum(rhs),rhsMax =  -6.21879769902023E-11  9.99375315263627E-02
 cg2d: Sum(rhs),rhsMax =  -6.20540840934325E-11  1.00062957186213E-01
 cg2d: Sum(rhs),rhsMax =  -6.19306550486698E-11  1.00186025486522E-01
 cg2d: Sum(rhs),rhsMax =  -6.17980111528027E-11  1.00305056195705E-01
 cg2d: Sum(rhs),rhsMax =  -6.16709183720587E-11  1.00419534811578E-01
 cg2d: Sum(rhs),rhsMax =  -6.15699019546057E-11  1.00528981843645E-01
 cg2d: Sum(rhs),rhsMax =  -6.14709672053237E-11  1.00632209644100E-01
 cg2d: Sum(rhs),rhsMax =  -6.13557815665189E-11  1.00728888882723E-01
 cg2d: Sum(rhs),rhsMax =  -6.12687539591761E-11  1.00818523806441E-01
 cg2d: Sum(rhs),rhsMax =  -6.11574263453818E-11  1.00900429883478E-01
 cg2d: Sum(rhs),rhsMax =  -6.10765604758257E-11  1.00973839226285E-01
 cg2d: Sum(rhs),rhsMax =  -6.10025918668100E-11  1.01038521651801E-01
 cg2d: Sum(rhs),rhsMax =  -6.09194777956290E-11  1.01094104732759E-01
 cg2d: Sum(rhs),rhsMax =  -6.08395417378560E-11  1.01140575609711E-01
 cg2d: Sum(rhs),rhsMax =  -6.09085212821547E-11  1.00948890865310E-01
 cg2d: Sum(rhs),rhsMax =  -6.07810746178217E-11  1.01057757462536E-01
 cg2d: Sum(rhs),rhsMax =  -6.06461998675645E-11  1.01102283667299E-01
 cg2d: Sum(rhs),rhsMax =  -6.05413913445929E-11  1.01131670441125E-01
 cg2d: Sum(rhs),rhsMax =  -6.04135665105421E-11  1.01154211045918E-01
 cg2d: Sum(rhs),rhsMax =  -6.02874823088691E-11  1.01168160173508E-01
 cg2d: Sum(rhs),rhsMax =  -6.01561153321106E-11  1.01172121224729E-01
 cg2d: Sum(rhs),rhsMax =  -6.00470940331777E-11  1.01166316455712E-01
 cg2d: Sum(rhs),rhsMax =  -5.99391612732258E-11  1.01155375853201E-01
 cg2d: Sum(rhs),rhsMax =  -5.98441296517649E-11  1.01130796386607E-01
 cg2d: Sum(rhs),rhsMax =  -5.97710006489116E-11  1.01089556650098E-01
 cg2d: Sum(rhs),rhsMax =  -5.96717536494040E-11  1.01051973186758E-01
 cg2d: Sum(rhs),rhsMax =  -5.95997001751059E-11  1.00999240177693E-01
 cg2d: Sum(rhs),rhsMax =  -5.95358484734021E-11  1.00937023617740E-01
 cg2d: Sum(rhs),rhsMax =  -5.94884280724628E-11  1.00866320997524E-01
 cg2d: Sum(rhs),rhsMax =  -5.94297389078235E-11  1.00787285139101E-01
 cg2d: Sum(rhs),rhsMax =  -5.93444599017445E-11  1.00700340489899E-01
 cg2d: Sum(rhs),rhsMax =  -5.93012861038744E-11  1.00605934483120E-01
 cg2d: Sum(rhs),rhsMax =  -5.92488003103853E-11  1.00504714295391E-01
 cg2d: Sum(rhs),rhsMax =  -5.91977716846159E-11  1.00397333538657E-01
 cg2d: Sum(rhs),rhsMax =  -5.91583310116661E-11  1.00284346247170E-01
(PID.TID 0000.0001)      cg2d_init_res =   4.62478421532457E-02
(PID.TID 0000.0001)      cg2d_iters(min,last) =      -1      37
(PID.TID 0000.0001)      cg2d_last_res =   9.46469247437562E-14
(PID.TID 0000.0001) // =======================================================
(PID.TID 0000.0001) // Begin MONITOR dynamic field statistics
(PID.TID 0000.0001) // =======================================================
(PID.TID 0000.0001) %MON time_tsnumber                =                  6720
(PID.TID 0000.0001) %MON time_secondsf                =   1.0080000000000E+05
(PID.TID 0000.0001) %MON dynstat_eta_max              =   1.3592645082238E-02
(PID.TID 0000.0001) %MON dynstat_eta_min              =  -1.4654959761269E-02
(PID.TID 0000.0001) %MON dynstat_eta_mean             =   1.3059690383809E-14
(PID.TID 0000.0001) %MON dynstat_eta_sd               =   3.5813983625983E-03
(PID.TID 0000.0001) %MON dynstat_eta_del2             =   7.8957103934453E-05
(PID.TID 0000.0001) %MON dynstat_uvel_max             =   1.2939101961762E+00
(PID.TID 0000.0001) %MON dynstat_uvel_min             =  -6.8543895404241E-01
(PID.TID 0000.0001) %MON dynstat_uvel_mean            =   4.5411570904982E-01
(PID.TID 0000.0001) %MON dynstat_uvel_sd              =   9.9053202990065E-02
(PID.TID 0000.0001) %MON dynstat_uvel_del2            =   1.0902555742276E-03
(PID.TID 0000.0001) %MON dynstat_vvel_max             =   0.0000000000000E+00
(PID.TID 0000.0001) %MON dynstat_vvel_min             =   0.0000000000000E+00
(PID.TID 0000.0001) %MON dynstat_vvel_mean            =   0.0000000000000E+00
(PID.TID 0000.0001) %MON dynstat_vvel_sd              =   0.0000000000000E+00
(PID.TID 0000.0001) %MON dynstat_vvel_del2            =   0.0000000000000E+00
(PID.TID 0000.0001) %MON dynstat_wvel_max             =   3.9836414885961E-02
(PID.TID 0000.0001) %MON dynstat_wvel_min             =  -7.9886090219351E-02
(PID.TID 0000.0001) %MON dynstat_wvel_mean            =   8.4947302007187E-20
(PID.TID 0000.0001) %MON dynstat_wvel_sd              =   5.5607222305318E-03
(PID.TID 0000.0001) %MON dynstat_wvel_del2            =   1.7001946263814E-04
(PID.TID 0000.0001) %MON dynstat_theta_max            =   1.5000000000010E+01
(PID.TID 0000.0001) %MON dynstat_theta_min            =   9.9999999999984E+00
(PID.TID 0000.0001) %MON dynstat_theta_mean           =   1.1005182279429E+01
(PID.TID 0000.0001) %MON dynstat_theta_sd             =   1.8510745837846E+00
(PID.TID 0000.0001) %MON dynstat_theta_del2           =   7.7800061447893E-04
(PID.TID 0000.0001) %MON dynstat_salt_max             =   3.5000000000000E+01
(PID.TID 0000.0001) %MON dynstat_salt_min             =   3.5000000000000E+01
(PID.TID 0000.0001) %MON dynstat_salt_mean            =   3.5000000000000E+01
(PID.TID 0000.0001) %MON dynstat_salt_sd              =   4.0500935938326E-13
(PID.TID 0000.0001) %MON dynstat_salt_del2            =   0.0000000000000E+00
(PID.TID 0000.0001) %MON dynstat_sst_max              =   1.5000000000010E+01
(PID.TID 0000.0001) %MON dynstat_sst_min              =   1.4962129295308E+01
(PID.TID 0000.0001) %MON dynstat_sst_mean             =   1.4999274382131E+01
(PID.TID 0000.0001) %MON dynstat_sst_sd               =   4.4222967216218E-03
(PID.TID 0000.0001) %MON dynstat_sst_del2             =   7.4150236514159E-05
(PID.TID 0000.0001) %MON dynstat_sss_max              =   3.5000000000000E+01
(PID.TID 0000.0001) %MON dynstat_sss_min              =   3.5000000000000E+01
(PID.TID 0000.0001) %MON dynstat_sss_mean             =   3.5000000000000E+01
(PID.TID 0000.0001) %MON dynstat_sss_sd               =   4.2632564145606E-14
(PID.TID 0000.0001) %MON dynstat_sss_del2             =   0.0000000000000E+00
(PID.TID 0000.0001) %MON forcing_qnet_max             =   0.0000000000000E+00
(PID.TID 0000.0001) %MON forcing_qnet_min             =   0.0000000000000E+00
(PID.TID 0000.0001) %MON forcing_qnet_mean            =   0.0000000000000E+00
(PID.TID 0000.0001) %MON forcing_qnet_sd              =   0.0000000000000E+00
(PID.TID 0000.0001) %MON forcing_qnet_del2            =   0.0000000000000E+00
(PID.TID 0000.0001) %MON forcing_qsw_max              =   0.0000000000000E+00
(PID.TID 0000.0001) %MON forcing_qsw_min              =   0.0000000000000E+00
(PID.TID 0000.0001) %MON forcing_qsw_mean             =   0.0000000000000E+00
(PID.TID 0000.0001) %MON forcing_qsw_sd               =   0.0000000000000E+00
(PID.TID 0000.0001) %MON forcing_qsw_del2             =   0.0000000000000E+00
(PID.TID 0000.0001) %MON forcing_empmr_max            =   0.0000000000000E+00
(PID.TID 0000.0001) %MON forcing_empmr_min            =   0.0000000000000E+00
(PID.TID 0000.0001) %MON forcing_empmr_mean           =   0.0000000000000E+00
(PID.TID 0000.0001) %MON forcing_empmr_sd             =   0.0000000000000E+00
(PID.TID 0000.0001) %MON forcing_empmr_del2           =   0.0000000000000E+00
(PID.TID 0000.0001) %MON forcing_fu_max               =   0.0000000000000E+00
(PID.TID 0000.0001) %MON forcing_fu_min               =   0.0000000000000E+00
(PID.TID 0000.0001) %MON forcing_fu_mean              =   0.0000000000000E+00
(PID.TID 0000.0001) %MON forcing_fu_sd                =   0.0000000000000E+00
(PID.TID 0000.0001) %MON forcing_fu_del2              =   0.0000000000000E+00
(PID.TID 0000.0001) %MON forcing_fv_max               =   0.0000000000000E+00
(PID.TID 0000.0001) %MON forcing_fv_min               =   0.0000000000000E+00
(PID.TID 0000.0001) %MON forcing_fv_mean              =   0.0000000000000E+00
(PID.TID 0000.0001) %MON forcing_fv_sd                =   0.0000000000000E+00
(PID.TID 0000.0001) %MON forcing_fv_del2              =   0.0000000000000E+00
(PID.TID 0000.0001) %MON advcfl_uvel_max              =   8.7748174878768E-02
(PID.TID 0000.0001) %MON advcfl_vvel_max              =   0.0000000000000E+00
(PID.TID 0000.0001) %MON advcfl_wvel_max              =   5.4153531916944E-01
(PID.TID 0000.0001) %MON advcfl_W_hf_max              =   5.4742690078790E-01
(PID.TID 0000.0001) %MON pe_b_mean                    =   3.1789882480273E-07
(PID.TID 0000.0001) %MON ke_max                       =   6.4004621479975E-01
(PID.TID 0000.0001) %MON ke_mean                      =   1.0807207645534E-01
(PID.TID 0000.0001) %MON ke_vol                       =   9.6656886657870E+10
(PID.TID 0000.0001) %MON vort_r_min                   =   0.0000000000000E+00
(PID.TID 0000.0001) %MON vort_r_max                   =   0.0000000000000E+00
(PID.TID 0000.0001) %MON vort_a_mean                  =   0.0000000000000E+00
(PID.TID 0000.0001) %MON vort_a_sd                    =   0.0000000000000E+00
(PID.TID 0000.0001) %MON vort_p_mean                  =   0.0000000000000E+00
(PID.TID 0000.0001) %MON vort_p_sd                    =   0.0000000000000E+00
(PID.TID 0000.0001) %MON surfExpan_theta_mean         =  -2.0813013841094E-09
(PID.TID 0000.0001) %MON surfExpan_salt_mean          =   5.1577856900203E-18
(PID.TID 0000.0001) // =======================================================
(PID.TID 0000.0001) // End MONITOR dynamic field statistics
(PID.TID 0000.0001) // =======================================================
(PID.TID 0000.0001) // =======================================================
(PID.TID 0000.0001) // Begin OBCS MONITOR field statistics
(PID.TID 0000.0001) // =======================================================
(PID.TID 0000.0001) %MON obc_E_uVel_max               =   4.4822851314926E-01
(PID.TID 0000.0001) %MON obc_E_uVel_min               =   4.4822851314926E-01
(PID.TID 0000.0001) %MON obc_E_uVel_mean              =   4.4822851314926E-01
(PID.TID 0000.0001) %MON obc_E_uVel_sd                =  -1.9428902930940E-16
(PID.TID 0000.0001) %MON obc_E_uVel_Int               =   4.4822851314926E+05
(PID.TID 0000.0001) %MON obc_W_uVel_max               =   4.4822851314926E-01
(PID.TID 0000.0001) %MON obc_W_uVel_min               =   4.4822851314926E-01
(PID.TID 0000.0001) %MON obc_W_uVel_mean              =   4.4822851314926E-01
(PID.TID 0000.0001) %MON obc_W_uVel_sd                =  -1.9428902930940E-16
(PID.TID 0000.0001) %MON obc_W_uVel_Int               =   4.4822851314926E+05
(PID.TID 0000.0001) // =======================================================
(PID.TID 0000.0001) // End OBCS MONITOR field statistics
(PID.TID 0000.0001) // =======================================================
 cg2d: Sum(rhs),rhsMax =  -5.91094256874314E-11  1.00166278138186E-01
 cg2d: Sum(rhs),rhsMax =  -5.90913984410690E-11  1.00042637322028E-01
 cg2d: Sum(rhs),rhsMax =  -5.90407722711461E-11  9.99134531942937E-02
 cg2d: Sum(rhs),rhsMax =  -5.90289206403583E-11  9.97795398052831E-02
 cg2d: Sum(rhs),rhsMax =  -5.90169857428435E-11  9.96416012785267E-02
 cg2d: Sum(rhs),rhsMax =  -5.89794046934600E-11  9.95003799538496E-02
 cg2d: Sum(rhs),rhsMax =  -5.89616688806416E-11  9.93567376398810E-02
 cg2d: Sum(rhs),rhsMax =  -5.89693849306627E-11  9.92113280732737E-02
 cg2d: Sum(rhs),rhsMax =  -5.89424620223156E-11  9.90648277886073E-02
 cg2d: Sum(rhs),rhsMax =  -5.89270576778489E-11  9.89179369291914E-02
 cg2d: Sum(rhs),rhsMax =  -5.89310267251619E-11  9.87712804051968E-02
 cg2d: Sum(rhs),rhsMax =  -5.89303605913472E-11  9.86254213179276E-02
 cg2d: Sum(rhs),rhsMax =  -5.89464033140530E-11  9.84810087352567E-02
 cg2d: Sum(rhs),rhsMax =  -5.89459592248431E-11  9.83385114968052E-02
 cg2d: Sum(rhs),rhsMax =  -5.89580884113872E-11  9.81983377523556E-02
 cg2d: Sum(rhs),rhsMax =  -5.89539250750448E-11  9.80613823100652E-02
 cg2d: Sum(rhs),rhsMax =  -5.89603366130120E-11  9.79300245201329E-02
 cg2d: Sum(rhs),rhsMax =  -5.89809867612701E-11  9.78025396951570E-02
 cg2d: Sum(rhs),rhsMax =  -5.89991389077227E-11  9.76790266379162E-02
 cg2d: Sum(rhs),rhsMax =  -5.90008319978352E-11  9.75581589409030E-02
 cg2d: Sum(rhs),rhsMax =  -5.90084092699783E-11  9.74407628764938E-02
 cg2d: Sum(rhs),rhsMax =  -5.89880366774764E-11  9.73281913304033E-02
 cg2d: Sum(rhs),rhsMax =  -5.89744919565760E-11  9.72211082828786E-02
 cg2d: Sum(rhs),rhsMax =  -5.89752691126932E-11  9.71197513231184E-02
 cg2d: Sum(rhs),rhsMax =  -5.89506221615466E-11  9.70243174462830E-02
 cg2d: Sum(rhs),rhsMax =  -5.89340243273284E-11  9.69350268353298E-02
 cg2d: Sum(rhs),rhsMax =  -5.89263082773073E-11  9.68520412363334E-02
 cg2d: Sum(rhs),rhsMax =  -5.88943893653493E-11  9.67756843781230E-02
 cg2d: Sum(rhs),rhsMax =  -5.88534221357406E-11  9.67063304615544E-02
 cg2d: Sum(rhs),rhsMax =  -5.88221693575974E-11  9.66667197443636E-02
 cg2d: Sum(rhs),rhsMax =  -5.87725978995479E-11  9.66211083119308E-02
 cg2d: Sum(rhs),rhsMax =  -5.87081494529684E-11  9.65811024260068E-02
 cg2d: Sum(rhs),rhsMax =  -5.86694026694090E-11  9.65475693573527E-02
 cg2d: Sum(rhs),rhsMax =  -5.86331538876550E-11  9.65201517083658E-02
 cg2d: Sum(rhs),rhsMax =  -5.85859694091084E-11  9.64990450204547E-02
 cg2d: Sum(rhs),rhsMax =  -5.85617110360204E-11  9.64844812511461E-02
 cg2d: Sum(rhs),rhsMax =  -5.85187454049674E-11  9.64768104532171E-02
 cg2d: Sum(rhs),rhsMax =  -5.84828296901208E-11  9.64762024489194E-02
 cg2d: Sum(rhs),rhsMax =  -5.84363113453890E-11  9.64828790608012E-02
 cg2d: Sum(rhs),rhsMax =  -5.84078896359586E-11  9.64971142270677E-02
 cg2d: Sum(rhs),rhsMax =  -5.83443848789500E-11  9.65191816234922E-02
 cg2d: Sum(rhs),rhsMax =  -5.82913162183729E-11  9.65494218631828E-02
 cg2d: Sum(rhs),rhsMax =  -5.82032200213689E-11  9.65880656603862E-02
 cg2d: Sum(rhs),rhsMax =  -5.81201198279757E-11  9.66351844145939E-02
 cg2d: Sum(rhs),rhsMax =  -5.80356318558017E-11  9.66910812246028E-02
 cg2d: Sum(rhs),rhsMax =  -5.79464809469243E-11  9.67561322193357E-02
 cg2d: Sum(rhs),rhsMax =  -5.78521119898312E-11  9.68306208230825E-02
 cg2d: Sum(rhs),rhsMax =  -5.77996539519177E-11  9.69145333532889E-02
 cg2d: Sum(rhs),rhsMax =  -5.77285441671904E-11  9.70080584949034E-02
 cg2d: Sum(rhs),rhsMax =  -5.76144687514102E-11  9.71112021181041E-02
 cg2d: Sum(rhs),rhsMax =  -5.75363645616278E-11  9.72240561145647E-02
 cg2d: Sum(rhs),rhsMax =  -5.74316150192544E-11  9.73466554589097E-02
 cg2d: Sum(rhs),rhsMax =  -5.73054381725058E-11  9.74789134270534E-02
 cg2d: Sum(rhs),rhsMax =  -5.72635827644774E-11  9.76201104923877E-02
 cg2d: Sum(rhs),rhsMax =  -5.72040748103575E-11  9.77713130771565E-02
 cg2d: Sum(rhs),rhsMax =  -5.71744873667512E-11  9.79317089366428E-02
 cg2d: Sum(rhs),rhsMax =  -5.71010461136723E-11  9.80999116388850E-02
 cg2d: Sum(rhs),rhsMax =  -5.70439251390553E-11  9.82775289298319E-02
 cg2d: Sum(rhs),rhsMax =  -5.69623237467454E-11  9.84632530748302E-02
 cg2d: Sum(rhs),rhsMax =  -5.68664004774178E-11  9.86556164438689E-02
 cg2d: Sum(rhs),rhsMax =  -5.67842439735955E-11  9.88534513458179E-02
 cg2d: Sum(rhs),rhsMax =  -5.66966473769526E-11  9.90570728721232E-02
 cg2d: Sum(rhs),rhsMax =  -5.65789637363423E-11  9.92660099100939E-02
 cg2d: Sum(rhs),rhsMax =  -5.64723268148271E-11  9.94795406385924E-02
 cg2d: Sum(rhs),rhsMax =  -5.63717406087960E-11  9.96971673122497E-02
 cg2d: Sum(rhs),rhsMax =  -5.62642710200123E-11  9.99183772940813E-02
 cg2d: Sum(rhs),rhsMax =  -5.61437007995380E-11  1.00142285141155E-01
 cg2d: Sum(rhs),rhsMax =  -5.60541613126020E-11  1.00368101392703E-01
 cg2d: Sum(rhs),rhsMax =  -5.59543522626882E-11  1.00595062019633E-01
 cg2d: Sum(rhs),rhsMax =  -5.58473822742656E-11  1.00822324862670E-01
 cg2d: Sum(rhs),rhsMax =  -5.57411339308089E-11  1.01049146236837E-01
 cg2d: Sum(rhs),rhsMax =  -5.56563684028788E-11  1.01274672180410E-01
 cg2d: Sum(rhs),rhsMax =  -5.55419044090399E-11  1.01499955640629E-01
 cg2d: Sum(rhs),rhsMax =  -5.54531420782212E-11  1.01721237434659E-01
 cg2d: Sum(rhs),rhsMax =  -5.53683210391398E-11  1.01937576333817E-01
 cg2d: Sum(rhs),rhsMax =  -5.52776713291792E-11  1.02149029814979E-01
 cg2d: Sum(rhs),rhsMax =  -5.52069501225105E-11  1.02354656548957E-01
 cg2d: Sum(rhs),rhsMax =  -5.51414469640576E-11  1.02552242146487E-01
 cg2d: Sum(rhs),rhsMax =  -5.50732237591944E-11  1.02744345453266E-01
 cg2d: Sum(rhs),rhsMax =  -5.50305356838976E-11  1.02927316318156E-01
 cg2d: Sum(rhs),rhsMax =  -5.49897349877426E-11  1.03101019576164E-01
 cg2d: Sum(rhs),rhsMax =  -5.49443268660355E-11  1.03265018188254E-01
 cg2d: Sum(rhs),rhsMax =  -5.48901479824337E-11  1.03416631795019E-01
 cg2d: Sum(rhs),rhsMax =  -5.48591727600467E-11  1.03558862760679E-01
 cg2d: Sum(rhs),rhsMax =  -5.48454337501170E-11  1.03689051048596E-01
 cg2d: Sum(rhs),rhsMax =  -5.48160683511156E-11  1.03807215268954E-01
 cg2d: Sum(rhs),rhsMax =  -5.48004697176196E-11  1.03912773372030E-01
 cg2d: Sum(rhs),rhsMax =  -5.48185941084967E-11  1.04004707536751E-01
 cg2d: Sum(rhs),rhsMax =  -5.47984990717509E-11  1.04083127229495E-01
 cg2d: Sum(rhs),rhsMax =  -5.48249501353126E-11  1.04148046935696E-01
 cg2d: Sum(rhs),rhsMax =  -5.48524281551721E-11  1.04198498927824E-01
 cg2d: Sum(rhs),rhsMax =  -5.48729117699764E-11  1.04234812097082E-01
 cg2d: Sum(rhs),rhsMax =  -5.48731893257326E-11  1.04257145821350E-01
 cg2d: Sum(rhs),rhsMax =  -5.48853740234279E-11  1.04264774550763E-01
 cg2d: Sum(rhs),rhsMax =  -5.49128797988629E-11  1.04257960893698E-01
 cg2d: Sum(rhs),rhsMax =  -5.49384704395806E-11  1.04236995248034E-01
 cg2d: Sum(rhs),rhsMax =  -5.50426648704416E-11  1.04084114977742E-01
 cg2d: Sum(rhs),rhsMax =  -5.50848255898018E-11  1.04035143915165E-01
 cg2d: Sum(rhs),rhsMax =  -5.51510503932207E-11  1.03978586172750E-01
 cg2d: Sum(rhs),rhsMax =  -5.52143886167755E-11  1.03916227072487E-01
 cg2d: Sum(rhs),rhsMax =  -5.52827228439412E-11  1.03847928466663E-01
 cg2d: Sum(rhs),rhsMax =  -5.53387335955335E-11  1.03769734055880E-01
 cg2d: Sum(rhs),rhsMax =  -5.54034873534448E-11  1.03680507114556E-01
 cg2d: Sum(rhs),rhsMax =  -5.54870593916235E-11  1.03581054335112E-01
 cg2d: Sum(rhs),rhsMax =  -5.55514245714761E-11  1.03471390899475E-01
 cg2d: Sum(rhs),rhsMax =  -5.56324847300615E-11  1.03351838143830E-01
 cg2d: Sum(rhs),rhsMax =  -5.57392187960914E-11  1.03222657456175E-01
 cg2d: Sum(rhs),rhsMax =  -5.58403046024836E-11  1.03084205533833E-01
 cg2d: Sum(rhs),rhsMax =  -5.59622487239508E-11  1.02937559131119E-01
 cg2d: Sum(rhs),rhsMax =  -5.60745755384673E-11  1.02783688224343E-01
 cg2d: Sum(rhs),rhsMax =  -5.61858337633225E-11  1.02623532705455E-01
 cg2d: Sum(rhs),rhsMax =  -5.63045443602306E-11  1.02447567148766E-01
 cg2d: Sum(rhs),rhsMax =  -5.64378821454881E-11  1.02278151470549E-01
 cg2d: Sum(rhs),rhsMax =  -5.65565511090327E-11  1.02112774877145E-01
 cg2d: Sum(rhs),rhsMax =  -5.66662133882900E-11  1.01936243158139E-01
 cg2d: Sum(rhs),rhsMax =  -5.68573590986610E-11  1.01757207880687E-01
 cg2d: Sum(rhs),rhsMax =  -5.70332045479738E-11  1.01576949404117E-01
 cg2d: Sum(rhs),rhsMax =  -5.71955399708557E-11  1.01396584588569E-01
 cg2d: Sum(rhs),rhsMax =  -5.73510856860526E-11  1.01216812933522E-01
 cg2d: Sum(rhs),rhsMax =  -5.75358614918198E-11  1.01038267616948E-01
 cg2d: Sum(rhs),rhsMax =  -5.76657332995723E-11  1.00861525594256E-01
 cg2d: Sum(rhs),rhsMax =  -5.77839226120758E-11  1.00688467134611E-01
 cg2d: Sum(rhs),rhsMax =  -5.79251997930019E-11  1.00518742049299E-01
 cg2d: Sum(rhs),rhsMax =  -5.80599630872758E-11  1.00352689304556E-01
 cg2d: Sum(rhs),rhsMax =  -5.81959411216637E-11  1.00190945888263E-01
 cg2d: Sum(rhs),rhsMax =  -5.83534956466458E-11  1.00025379793815E-01
 cg2d: Sum(rhs),rhsMax =  -5.84645248880022E-11  9.98847135443931E-02
 cg2d: Sum(rhs),rhsMax =  -5.86155568527147E-11  9.97426155185391E-02
 cg2d: Sum(rhs),rhsMax =  -5.87268358942516E-11  9.96156280436715E-02
 cg2d: Sum(rhs),rhsMax =  -5.88402590540049E-11  9.94858047917511E-02
 cg2d: Sum(rhs),rhsMax =  -5.89453486021796E-11  9.93592796030818E-02
 cg2d: Sum(rhs),rhsMax =  -5.90658494337148E-11  9.92372308756021E-02
 cg2d: Sum(rhs),rhsMax =  -5.91514753844891E-11  9.91198965284931E-02
 cg2d: Sum(rhs),rhsMax =  -5.92103310825820E-11  9.90075390723638E-02
 cg2d: Sum(rhs),rhsMax =  -5.93169124929460E-11  9.89002233768033E-02
 cg2d: Sum(rhs),rhsMax =  -5.94138765963592E-11  9.87983701171333E-02
 cg2d: Sum(rhs),rhsMax =  -5.95236082645556E-11  9.87032107704153E-02
 cg2d: Sum(rhs),rhsMax =  -5.96152155418750E-11  9.86142759959930E-02
 cg2d: Sum(rhs),rhsMax =  -5.96812044229011E-11  9.85320466999756E-02
 cg2d: Sum(rhs),rhsMax =  -5.97582261452345E-11  9.84565630183686E-02
 cg2d: Sum(rhs),rhsMax =  -5.98618654645833E-11  9.83876692592030E-02
 cg2d: Sum(rhs),rhsMax =  -5.99093274988860E-11  9.83252871364965E-02
 cg2d: Sum(rhs),rhsMax =  -5.99602312245651E-11  9.82690526531187E-02
 cg2d: Sum(rhs),rhsMax =  -6.00112459725466E-11  9.82177947482760E-02
 cg2d: Sum(rhs),rhsMax =  -6.01007299483314E-11  9.81717813535134E-02
 cg2d: Sum(rhs),rhsMax =  -6.01596272797877E-11  9.81311676208614E-02
 cg2d: Sum(rhs),rhsMax =  -6.02111138725547E-11  9.80958983418813E-02
 cg2d: Sum(rhs),rhsMax =  -6.02216054801374E-11  9.80660796402373E-02
 cg2d: Sum(rhs),rhsMax =  -6.02775607205785E-11  9.80418486324193E-02
 cg2d: Sum(rhs),rhsMax =  -6.03287697575894E-11  9.80232281086638E-02
 cg2d: Sum(rhs),rhsMax =  -6.03383176756012E-11  9.80105294987848E-02
 cg2d: Sum(rhs),rhsMax =  -6.03813110622298E-11  9.80038467410772E-02
 cg2d: Sum(rhs),rhsMax =  -6.04132854853390E-11  9.80033650123015E-02
 cg2d: Sum(rhs),rhsMax =  -6.04222505362628E-11  9.80092133399692E-02
 cg2d: Sum(rhs),rhsMax =  -6.04161443096274E-11  9.80243898065095E-02
 cg2d: Sum(rhs),rhsMax =  -6.04202798903941E-11  9.80490707823417E-02
 cg2d: Sum(rhs),rhsMax =  -6.04185035335547E-11  9.80828153101729E-02
 cg2d: Sum(rhs),rhsMax =  -6.04006844540095E-11  9.81258857549140E-02
 cg2d: Sum(rhs),rhsMax =  -6.03905259133342E-11  9.81766947634759E-02
 cg2d: Sum(rhs),rhsMax =  -6.03849192870598E-11  9.82357516017599E-02
 cg2d: Sum(rhs),rhsMax =  -6.04039041007809E-11  9.83025315042957E-02
 cg2d: Sum(rhs),rhsMax =  -6.03728178560914E-11  9.83771871638515E-02
 cg2d: Sum(rhs),rhsMax =  -6.04112315727434E-11  9.84601676203973E-02
 cg2d: Sum(rhs),rhsMax =  -6.03926908482322E-11  9.85498948033869E-02
 cg2d: Sum(rhs),rhsMax =  -6.03933014708957E-11  9.86465943434172E-02
 cg2d: Sum(rhs),rhsMax =  -6.03662120290949E-11  9.87502016568745E-02
 cg2d: Sum(rhs),rhsMax =  -6.03225247530759E-11  9.88604123471024E-02
 cg2d: Sum(rhs),rhsMax =  -6.03045391400769E-11  9.89775350956769E-02
 cg2d: Sum(rhs),rhsMax =  -6.02792260551155E-11  9.91014460383208E-02
 cg2d: Sum(rhs),rhsMax =  -6.02389249593216E-11  9.92323697843898E-02
 cg2d: Sum(rhs),rhsMax =  -6.02431993179664E-11  9.93690691809350E-02
 cg2d: Sum(rhs),rhsMax =  -6.01967919955371E-11  9.95120044511171E-02
 cg2d: Sum(rhs),rhsMax =  -6.01325655935625E-11  9.96616802108115E-02
 cg2d: Sum(rhs),rhsMax =  -6.01035887726198E-11  9.98177969785843E-02
 cg2d: Sum(rhs),rhsMax =  -6.00047234122769E-11  9.99802649203123E-02
 cg2d: Sum(rhs),rhsMax =  -5.99605365358968E-11  1.00148706992037E-01
 cg2d: Sum(rhs),rhsMax =  -5.98753269187569E-11  1.00323023702282E-01
 cg2d: Sum(rhs),rhsMax =  -5.97852323203085E-11  1.00502499148562E-01
 cg2d: Sum(rhs),rhsMax =  -5.97797922274879E-11  1.00545476556321E-01
 cg2d: Sum(rhs),rhsMax =  -5.97121241341370E-11  1.00733974828673E-01
 cg2d: Sum(rhs),rhsMax =  -5.96081517478808E-11  1.00942956111551E-01
 cg2d: Sum(rhs),rhsMax =  -5.94619353755377E-11  1.01165255256077E-01
 cg2d: Sum(rhs),rhsMax =  -5.93388671532580E-11  1.01400348106909E-01
 cg2d: Sum(rhs),rhsMax =  -5.92111915054261E-11  1.01644909763344E-01
 cg2d: Sum(rhs),rhsMax =  -5.91114934778147E-11  1.01896917203705E-01
 cg2d: Sum(rhs),rhsMax =  -5.89545079421328E-11  1.02154432135511E-01
 cg2d: Sum(rhs),rhsMax =  -5.88325499428777E-11  1.02416202272429E-01
 cg2d: Sum(rhs),rhsMax =  -5.86752313402883E-11  1.02687922891546E-01
 cg2d: Sum(rhs),rhsMax =  -5.85172466038841E-11  1.02953747231074E-01
 cg2d: Sum(rhs),rhsMax =  -5.84087223032270E-11  1.03215407393047E-01
 cg2d: Sum(rhs),rhsMax =  -5.82907611068606E-11  1.03475047247095E-01
 cg2d: Sum(rhs),rhsMax =  -5.81430459334342E-11  1.03731362998106E-01
 cg2d: Sum(rhs),rhsMax =  -5.80476777756189E-11  1.03982372192843E-01
 cg2d: Sum(rhs),rhsMax =  -5.78693759578641E-11  1.04228634967057E-01
 cg2d: Sum(rhs),rhsMax =  -5.78248560145767E-11  1.04468808986726E-01
 cg2d: Sum(rhs),rhsMax =  -5.77294323456101E-11  1.04702445369764E-01
 cg2d: Sum(rhs),rhsMax =  -5.76191871992648E-11  1.04928572502368E-01
 cg2d: Sum(rhs),rhsMax =  -5.75097192090368E-11  1.05146657455226E-01
 cg2d: Sum(rhs),rhsMax =  -5.74354452886894E-11  1.05355591334722E-01
 cg2d: Sum(rhs),rhsMax =  -5.73440184226115E-11  1.05553184272269E-01
 cg2d: Sum(rhs),rhsMax =  -5.72906166951270E-11  1.05736212936388E-01
 cg2d: Sum(rhs),rhsMax =  -5.73039393714225E-11  1.05904253260335E-01
 cg2d: Sum(rhs),rhsMax =  -5.72341063431736E-11  1.06057173614365E-01
 cg2d: Sum(rhs),rhsMax =  -5.72000224963176E-11  1.06194684401296E-01
 cg2d: Sum(rhs),rhsMax =  -5.71831471063433E-11  1.06315858471943E-01
 cg2d: Sum(rhs),rhsMax =  -5.71683256289646E-11  1.06420211940293E-01
 cg2d: Sum(rhs),rhsMax =  -5.71561686868449E-11  1.06507246611198E-01
 cg2d: Sum(rhs),rhsMax =  -5.71638847368661E-11  1.06576349542401E-01
 cg2d: Sum(rhs),rhsMax =  -5.70999914017989E-11  1.06627013514580E-01
 cg2d: Sum(rhs),rhsMax =  -5.70311020631209E-11  1.06658564377147E-01
 cg2d: Sum(rhs),rhsMax =  -5.70246072584268E-11  1.06669868249686E-01
 cg2d: Sum(rhs),rhsMax =  -5.70243297026707E-11  1.06660622466787E-01
 cg2d: Sum(rhs),rhsMax =  -5.70454794512898E-11  1.06630030941999E-01
 cg2d: Sum(rhs),rhsMax =  -5.71065972287954E-11  1.06569818588591E-01
 cg2d: Sum(rhs),rhsMax =  -5.71539482407957E-11  1.06494920622273E-01
 cg2d: Sum(rhs),rhsMax =  -5.71755420786246E-11  1.06405173885225E-01
 cg2d: Sum(rhs),rhsMax =  -5.72136782395205E-11  1.06294901370187E-01
 cg2d: Sum(rhs),rhsMax =  -5.72688008126931E-11  1.06162706607614E-01
 cg2d: Sum(rhs),rhsMax =  -5.73541214521356E-11  1.06009916009153E-01
 cg2d: Sum(rhs),rhsMax =  -5.74192360325299E-11  1.05838103614061E-01
 cg2d: Sum(rhs),rhsMax =  -5.75028913374354E-11  1.05646845477465E-01
 cg2d: Sum(rhs),rhsMax =  -5.75951508707817E-11  1.05436465528974E-01
 cg2d: Sum(rhs),rhsMax =  -5.76934611196123E-11  1.05220534228334E-01
 cg2d: Sum(rhs),rhsMax =  -5.77974890170196E-11  1.04988335319682E-01
 cg2d: Sum(rhs),rhsMax =  -5.79182812820989E-11  1.04733035403828E-01
 cg2d: Sum(rhs),rhsMax =  -5.80067105460103E-11  1.04457867571355E-01
 cg2d: Sum(rhs),rhsMax =  -5.81159564916334E-11  1.04167610119673E-01
 cg2d: Sum(rhs),rhsMax =  -5.82831005679907E-11  1.03864446099776E-01
 cg2d: Sum(rhs),rhsMax =  -5.84287618288215E-11  1.03526073826451E-01
 cg2d: Sum(rhs),rhsMax =  -5.85534398744869E-11  1.03203713018848E-01
 cg2d: Sum(rhs),rhsMax =  -5.87199178170295E-11  1.02872124876508E-01
 cg2d: Sum(rhs),rhsMax =  -5.88507020893303E-11  1.02548536651062E-01
 cg2d: Sum(rhs),rhsMax =  -5.90194559890733E-11  1.02184314916043E-01
 cg2d: Sum(rhs),rhsMax =  -5.91763860136041E-11  1.01834154151933E-01
 cg2d: Sum(rhs),rhsMax =  -5.92996762804887E-11  1.01481480283657E-01
 cg2d: Sum(rhs),rhsMax =  -5.94554960819949E-11  1.01116196310420E-01
 cg2d: Sum(rhs),rhsMax =  -5.96131477514916E-11  1.00772954282569E-01
 cg2d: Sum(rhs),rhsMax =  -5.97680793745781E-11  1.00419509888632E-01
 cg2d: Sum(rhs),rhsMax =  -5.99360561182039E-11  1.00059592786825E-01
 cg2d: Sum(rhs),rhsMax =  -6.00467453537590E-11  9.97267651123341E-02
 cg2d: Sum(rhs),rhsMax =  -6.01845240311150E-11  9.93854373895831E-02
 cg2d: Sum(rhs),rhsMax =  -6.03312400038192E-11  9.90733476001361E-02
 cg2d: Sum(rhs),rhsMax =  -6.04636896106570E-11  9.87453307111951E-02
 cg2d: Sum(rhs),rhsMax =  -6.06232841704468E-11  9.84330359365578E-02
 cg2d: Sum(rhs),rhsMax =  -6.07612293812565E-11  9.81371880956587E-02
 cg2d: Sum(rhs),rhsMax =  -6.08634254106732E-11  9.78337679185191E-02
 cg2d: Sum(rhs),rhsMax =  -6.09858274991382E-11  9.75555602973951E-02
 cg2d: Sum(rhs),rhsMax =  -6.10301253978207E-11  9.73009490387590E-02
 cg2d: Sum(rhs),rhsMax =  -6.11019013163627E-11  9.70536615537041E-02
 cg2d: Sum(rhs),rhsMax =  -6.11651007620395E-11  9.68152596234995E-02
 cg2d: Sum(rhs),rhsMax =  -6.12188078008558E-11  9.66071893283383E-02
 cg2d: Sum(rhs),rhsMax =  -6.12328243665416E-11  9.64243934128965E-02
 cg2d: Sum(rhs),rhsMax =  -6.12929151877495E-11  9.62392255724607E-02
 cg2d: Sum(rhs),rhsMax =  -6.13260553450345E-11  9.60713908003917E-02
 cg2d: Sum(rhs),rhsMax =  -6.13006589933462E-11  9.59327401646146E-02
 cg2d: Sum(rhs),rhsMax =  -6.12897232965537E-11  9.58403330564763E-02
 cg2d: Sum(rhs),rhsMax =  -6.12204731353927E-11  9.57595274217221E-02
 cg2d: Sum(rhs),rhsMax =  -6.11536932204615E-11  9.57006274186275E-02
 cg2d: Sum(rhs),rhsMax =  -6.10599626416075E-11  9.56645729290850E-02
 cg2d: Sum(rhs),rhsMax =  -6.09728934009013E-11  9.56515176279343E-02
 cg2d: Sum(rhs),rhsMax =  -6.08683936587084E-11  9.56611692591705E-02
 cg2d: Sum(rhs),rhsMax =  -6.07273120678542E-11  9.56931545548634E-02
 cg2d: Sum(rhs),rhsMax =  -6.05865080327561E-11  9.57466551958513E-02
 cg2d: Sum(rhs),rhsMax =  -6.04435390627600E-11  9.58208022585245E-02
 cg2d: Sum(rhs),rhsMax =  -6.02729255394507E-11  9.59148980451292E-02
 cg2d: Sum(rhs),rhsMax =  -6.00779148651753E-11  9.60279446133787E-02
 cg2d: Sum(rhs),rhsMax =  -5.99450350469155E-11  9.61587500908259E-02
 cg2d: Sum(rhs),rhsMax =  -5.97715210659544E-11  9.63482755278089E-02
 cg2d: Sum(rhs),rhsMax =  -5.96195592894588E-11  9.65294164769785E-02
 cg2d: Sum(rhs),rhsMax =  -5.94414240051577E-11  9.67207494537779E-02
 cg2d: Sum(rhs),rhsMax =  -5.92862564596786E-11  9.68885921936235E-02
 cg2d: Sum(rhs),rhsMax =  -5.91178495046307E-11  9.70791551984809E-02
 cg2d: Sum(rhs),rhsMax =  -5.89367443737387E-11  9.72819771004298E-02
 cg2d: Sum(rhs),rhsMax =  -5.87310616806391E-11  9.74954137746752E-02
 cg2d: Sum(rhs),rhsMax =  -5.85490406157518E-11  9.77172067740559E-02
 cg2d: Sum(rhs),rhsMax =  -5.83540160636886E-11  9.79446177760458E-02
 cg2d: Sum(rhs),rhsMax =  -5.81777404029538E-11  9.81761423943261E-02
 cg2d: Sum(rhs),rhsMax =  -5.79961079161251E-11  9.84108836563357E-02
 cg2d: Sum(rhs),rhsMax =  -5.78013886753936E-11  9.86476635534840E-02
 cg2d: Sum(rhs),rhsMax =  -5.75993697182753E-11  9.89164822926799E-02
 cg2d: Sum(rhs),rhsMax =  -5.74354175331138E-11  9.91658460433464E-02
 cg2d: Sum(rhs),rhsMax =  -5.72511534707720E-11  9.94094121903552E-02
 cg2d: Sum(rhs),rhsMax =  -5.70711355778186E-11  9.96471343328853E-02
 cg2d: Sum(rhs),rhsMax =  -5.68860687721884E-11  9.98771011871657E-02
 cg2d: Sum(rhs),rhsMax =  -5.67202743106954E-11  1.00098323658519E-01
 cg2d: Sum(rhs),rhsMax =  -5.65402238916768E-11  1.00310059547088E-01
 cg2d: Sum(rhs),rhsMax =  -5.64013939718944E-11  1.00510376619383E-01
 cg2d: Sum(rhs),rhsMax =  -5.62333027365192E-11  1.00698090178642E-01
 cg2d: Sum(rhs),rhsMax =  -5.60935881077640E-11  1.00873419359259E-01
 cg2d: Sum(rhs),rhsMax =  -5.59568225089180E-11  1.01037526809665E-01
 cg2d: Sum(rhs),rhsMax =  -5.58480206525047E-11  1.01189730990812E-01
 cg2d: Sum(rhs),rhsMax =  -5.57098880915596E-11  1.01329427366771E-01
 cg2d: Sum(rhs),rhsMax =  -5.55868684415373E-11  1.01456032483845E-01
 cg2d: Sum(rhs),rhsMax =  -5.54791768081486E-11  1.01568666550461E-01
 cg2d: Sum(rhs),rhsMax =  -5.53720680418479E-11  1.01666514585521E-01
 cg2d: Sum(rhs),rhsMax =  -5.52770607065156E-11  1.01751021494842E-01
 cg2d: Sum(rhs),rhsMax =  -5.51948903249055E-11  1.01821042311015E-01
 cg2d: Sum(rhs),rhsMax =  -5.51098611190071E-11  1.01875835636303E-01
 cg2d: Sum(rhs),rhsMax =  -5.50442608160395E-11  1.01915369496293E-01
 cg2d: Sum(rhs),rhsMax =  -5.49697370955116E-11  1.01940283405368E-01
 cg2d: Sum(rhs),rhsMax =  -5.49187362253178E-11  1.01950656709612E-01
 cg2d: Sum(rhs),rhsMax =  -5.48770751063188E-11  1.01946871472093E-01
 cg2d: Sum(rhs),rhsMax =  -5.48350809204123E-11  1.01928554350146E-01
 cg2d: Sum(rhs),rhsMax =  -5.48193712646139E-11  1.01894282472474E-01
 cg2d: Sum(rhs),rhsMax =  -5.47789313909419E-11  1.01846964276261E-01
 cg2d: Sum(rhs),rhsMax =  -5.47910050663347E-11  1.01785192884897E-01
 cg2d: Sum(rhs),rhsMax =  -5.47864531519338E-11  1.01710332224830E-01
 cg2d: Sum(rhs),rhsMax =  -5.48052436766255E-11  1.01622947658580E-01
 cg2d: Sum(rhs),rhsMax =  -5.48223966223560E-11  1.01524137384531E-01
 cg2d: Sum(rhs),rhsMax =  -5.48046885651132E-11  1.01414430728922E-01
 cg2d: Sum(rhs),rhsMax =  -5.47926981564473E-11  1.01294790545052E-01
 cg2d: Sum(rhs),rhsMax =  -5.47898948433101E-11  1.01165505129886E-01
 cg2d: Sum(rhs),rhsMax =  -5.47873968415047E-11  1.01028137185816E-01
 cg2d: Sum(rhs),rhsMax =  -5.47910605774860E-11  1.00883714823457E-01
 cg2d: Sum(rhs),rhsMax =  -5.47900613767638E-11  1.00732870208320E-01
 cg2d: Sum(rhs),rhsMax =  -5.47923373339643E-11  1.00576332166144E-01
 cg2d: Sum(rhs),rhsMax =  -5.48367740105249E-11  1.00414615935407E-01
 cg2d: Sum(rhs),rhsMax =  -5.48732170813082E-11  1.00248842616475E-01
 cg2d: Sum(rhs),rhsMax =  -5.48887879592286E-11  1.00080677595007E-01
 cg2d: Sum(rhs),rhsMax =  -5.49237322289287E-11  9.99105325277963E-02
 cg2d: Sum(rhs),rhsMax =  -5.49691681062114E-11  9.97394448702438E-02
 cg2d: Sum(rhs),rhsMax =  -5.49881529199325E-11  9.95680985071195E-02
 cg2d: Sum(rhs),rhsMax =  -5.50507694985214E-11  9.93796087724175E-02
 cg2d: Sum(rhs),rhsMax =  -5.50939849297549E-11  9.91985885979215E-02
 cg2d: Sum(rhs),rhsMax =  -5.51667045378679E-11  9.90298753854144E-02
 cg2d: Sum(rhs),rhsMax =  -5.52009549181776E-11  9.88666298821792E-02
 cg2d: Sum(rhs),rhsMax =  -5.52680123888649E-11  9.87062644472249E-02
 cg2d: Sum(rhs),rhsMax =  -5.53282419879508E-11  9.85496109080536E-02
 cg2d: Sum(rhs),rhsMax =  -5.53898593658175E-11  9.83977636775830E-02
 cg2d: Sum(rhs),rhsMax =  -5.54357670878858E-11  9.82514956383661E-02
 cg2d: Sum(rhs),rhsMax =  -5.54759571613772E-11  9.81113790458788E-02
 cg2d: Sum(rhs),rhsMax =  -5.55356316489508E-11  9.79773805899180E-02
 cg2d: Sum(rhs),rhsMax =  -5.55931967127776E-11  9.78500158642808E-02
 cg2d: Sum(rhs),rhsMax =  -5.56374946114602E-11  9.77301516059142E-02
 cg2d: Sum(rhs),rhsMax =  -5.58433854713769E-11  9.73696183451515E-02
 cg2d: Sum(rhs),rhsMax =  -5.58251778137731E-11  9.73758097347718E-02
 cg2d: Sum(rhs),rhsMax =  -5.57993651284505E-11  9.73273340087366E-02
 cg2d: Sum(rhs),rhsMax =  -5.58169621633908E-11  9.72579846007868E-02
 cg2d: Sum(rhs),rhsMax =  -5.58588175714192E-11  9.72191306498431E-02
 cg2d: Sum(rhs),rhsMax =  -5.58717516696561E-11  9.71865070812786E-02
 cg2d: Sum(rhs),rhsMax =  -5.58879054146644E-11  9.71607776037840E-02
 cg2d: Sum(rhs),rhsMax =  -5.59076118733515E-11  9.71539707091733E-02
 cg2d: Sum(rhs),rhsMax =  -5.59015611578673E-11  9.71498971549585E-02
 cg2d: Sum(rhs),rhsMax =  -5.58947332862658E-11  9.71487660466693E-02
 cg2d: Sum(rhs),rhsMax =  -5.58886270596304E-11  9.71559377944510E-02
 cg2d: Sum(rhs),rhsMax =  -5.58839641229270E-11  9.71666292774883E-02
 cg2d: Sum(rhs),rhsMax =  -5.58602608613512E-11  9.71921491766673E-02
 cg2d: Sum(rhs),rhsMax =  -5.58187385202302E-11  9.72324181005722E-02
 cg2d: Sum(rhs),rhsMax =  -5.57933144129663E-11  9.72759727913463E-02
 cg2d: Sum(rhs),rhsMax =  -5.57443535775803E-11  9.73279238294185E-02
 cg2d: Sum(rhs),rhsMax =  -5.56948931418333E-11  9.73885428198595E-02
 cg2d: Sum(rhs),rhsMax =  -5.56695245457206E-11  9.74576389510941E-02
 cg2d: Sum(rhs),rhsMax =  -5.56859558464851E-11  9.75342544197998E-02
 cg2d: Sum(rhs),rhsMax =  -5.56801271756058E-11  9.76194579068867E-02
 cg2d: Sum(rhs),rhsMax =  -5.56803492202107E-11  9.77132313217535E-02
 cg2d: Sum(rhs),rhsMax =  -5.56664159212517E-11  9.78146585758471E-02
 cg2d: Sum(rhs),rhsMax =  -5.56555912467616E-11  9.79234932607582E-02
 cg2d: Sum(rhs),rhsMax =  -5.56168999743534E-11  9.80396244024759E-02
 cg2d: Sum(rhs),rhsMax =  -5.56331092305129E-11  9.81625457664165E-02
 cg2d: Sum(rhs),rhsMax =  -5.55799295476334E-11  9.82920149885608E-02
 cg2d: Sum(rhs),rhsMax =  -5.55320789352720E-11  9.84478029906935E-02
 cg2d: Sum(rhs),rhsMax =  -5.54737367153280E-11  9.85941241264850E-02
 cg2d: Sum(rhs),rhsMax =  -5.54115087147977E-11  9.87436186107332E-02
 cg2d: Sum(rhs),rhsMax =  -5.53657120150319E-11  9.88961497722864E-02
 cg2d: Sum(rhs),rhsMax =  -5.53004864123352E-11  9.90703158378784E-02
 cg2d: Sum(rhs),rhsMax =  -5.52565770917113E-11  9.92341228298837E-02
 cg2d: Sum(rhs),rhsMax =  -5.52044521207051E-11  9.93956717496100E-02
 cg2d: Sum(rhs),rhsMax =  -5.51626522238280E-11  9.95548410699572E-02
 cg2d: Sum(rhs),rhsMax =  -5.51360623823882E-11  9.97111629142986E-02
 cg2d: Sum(rhs),rhsMax =  -5.51140799665006E-11  9.98639038197068E-02
 cg2d: Sum(rhs),rhsMax =  -5.50959278200480E-11  1.00011395053833E-01
 cg2d: Sum(rhs),rhsMax =  -5.50684498001885E-11  1.00155987954632E-01
 cg2d: Sum(rhs),rhsMax =  -5.50526291220876E-11  1.00296933818817E-01
 cg2d: Sum(rhs),rhsMax =  -5.50219314554568E-11  1.00432029505086E-01
 cg2d: Sum(rhs),rhsMax =  -5.49962853035879E-11  1.00562733013529E-01
 cg2d: Sum(rhs),rhsMax =  -5.49841006058926E-11  1.00690737456564E-01
 cg2d: Sum(rhs),rhsMax =  -5.49882639422350E-11  1.00813819964537E-01
 cg2d: Sum(rhs),rhsMax =  -5.49940371019630E-11  1.00931361421202E-01
 cg2d: Sum(rhs),rhsMax =  -5.50033907309455E-11  1.01042868871342E-01
 cg2d: Sum(rhs),rhsMax =  -5.50141876498600E-11  1.01144042591457E-01
 cg2d: Sum(rhs),rhsMax =  -5.50162138068799E-11  1.01244109462467E-01
 cg2d: Sum(rhs),rhsMax =  -5.50212930772176E-11  1.01338749892615E-01
 cg2d: Sum(rhs),rhsMax =  -5.50289813716631E-11  1.01428404005078E-01
 cg2d: Sum(rhs),rhsMax =  -5.50121337372644E-11  1.01510163866544E-01
 cg2d: Sum(rhs),rhsMax =  -5.49824352713557E-11  1.01578080543701E-01
 cg2d: Sum(rhs),rhsMax =  -5.49880974087813E-11  1.01642498939032E-01
 cg2d: Sum(rhs),rhsMax =  -5.49963130591635E-11  1.01698251112545E-01
 cg2d: Sum(rhs),rhsMax =  -5.50046952429994E-11  1.01745890362372E-01
 cg2d: Sum(rhs),rhsMax =  -5.50131884491378E-11  1.01785430597599E-01
 cg2d: Sum(rhs),rhsMax =  -5.50348377981180E-11  1.01817233374903E-01
 cg2d: Sum(rhs),rhsMax =  -5.50534617893561E-11  1.01841268297427E-01
 cg2d: Sum(rhs),rhsMax =  -5.51141632332275E-11  1.01856120660935E-01
 cg2d: Sum(rhs),rhsMax =  -5.51738099652255E-11  1.01862453266934E-01
 cg2d: Sum(rhs),rhsMax =  -5.52486667526608E-11  1.01860456363324E-01
 cg2d: Sum(rhs),rhsMax =  -5.53461998453741E-11  1.01851094767232E-01
 cg2d: Sum(rhs),rhsMax =  -5.54420953591261E-11  1.01831857058315E-01
 cg2d: Sum(rhs),rhsMax =  -5.56442392163348E-11  1.01618698732757E-01
 cg2d: Sum(rhs),rhsMax =  -5.56497903314579E-11  1.01661372027739E-01
 cg2d: Sum(rhs),rhsMax =  -5.56688861674814E-11  1.01684262108791E-01
 cg2d: Sum(rhs),rhsMax =  -5.57560664304901E-11  1.01666118590757E-01
 cg2d: Sum(rhs),rhsMax =  -5.58791901639211E-11  1.01631567277403E-01
 cg2d: Sum(rhs),rhsMax =  -5.59729623761385E-11  1.01593565330102E-01
 cg2d: Sum(rhs),rhsMax =  -5.60713003805446E-11  1.01550943196781E-01
 cg2d: Sum(rhs),rhsMax =  -5.61787699693284E-11  1.01500820960729E-01
 cg2d: Sum(rhs),rhsMax =  -5.62758728506196E-11  1.01442818445748E-01
 cg2d: Sum(rhs),rhsMax =  -5.63802338149344E-11  1.01378880724217E-01
 cg2d: Sum(rhs),rhsMax =  -5.65212321390618E-11  1.01309501052369E-01
 cg2d: Sum(rhs),rhsMax =  -5.66575675264858E-11  1.01234885450915E-01
 cg2d: Sum(rhs),rhsMax =  -5.67777491689014E-11  1.01154736447919E-01
 cg2d: Sum(rhs),rhsMax =  -5.68913249843206E-11  1.01069425739287E-01
 cg2d: Sum(rhs),rhsMax =  -5.70200206495564E-11  1.00980595887429E-01
 cg2d: Sum(rhs),rhsMax =  -5.71543715133238E-11  1.00896760668172E-01
 cg2d: Sum(rhs),rhsMax =  -5.72562622314088E-11  1.00800867270666E-01
 cg2d: Sum(rhs),rhsMax =  -5.73677147452933E-11  1.00703494128427E-01
 cg2d: Sum(rhs),rhsMax =  -5.74741088055220E-11  1.00605767568470E-01
 cg2d: Sum(rhs),rhsMax =  -5.75962194604429E-11  1.00507404058961E-01
 cg2d: Sum(rhs),rhsMax =  -5.76997859214057E-11  1.00408898365284E-01
 cg2d: Sum(rhs),rhsMax =  -5.78180992666377E-11  1.00304565416477E-01
 cg2d: Sum(rhs),rhsMax =  -5.79139847515196E-11  1.00206314807910E-01
 cg2d: Sum(rhs),rhsMax =  -5.80412514925022E-11  1.00113628147709E-01
 cg2d: Sum(rhs),rhsMax =  -5.81676755373461E-11  1.00023075479482E-01
 cg2d: Sum(rhs),rhsMax =  -5.82693858441896E-11  9.99349177687346E-02
 cg2d: Sum(rhs),rhsMax =  -5.83659544306503E-11  9.98496747934851E-02
 cg2d: Sum(rhs),rhsMax =  -5.84430281946879E-11  9.97679932478947E-02
 cg2d: Sum(rhs),rhsMax =  -5.85452727963620E-11  9.96904542958766E-02
 cg2d: Sum(rhs),rhsMax =  -5.86140233571619E-11  9.96171118125563E-02
 cg2d: Sum(rhs),rhsMax =  -5.86992329743019E-11  9.95485290337456E-02
 cg2d: Sum(rhs),rhsMax =  -5.87802029272666E-11  9.94851256855922E-02
 cg2d: Sum(rhs),rhsMax =  -5.88476906093760E-11  9.94274292229956E-02
 cg2d: Sum(rhs),rhsMax =  -5.89629456371199E-11  9.93766042915053E-02
 cg2d: Sum(rhs),rhsMax =  -5.90150567303382E-11  9.93331410659776E-02
 cg2d: Sum(rhs),rhsMax =  -5.90854726256751E-11  9.92972594126271E-02
 cg2d: Sum(rhs),rhsMax =  -5.91681981187975E-11  9.92688688547786E-02
 cg2d: Sum(rhs),rhsMax =  -5.91989790521552E-11  9.92465943208078E-02
 cg2d: Sum(rhs),rhsMax =  -5.92773469199059E-11  9.92297052041235E-02
 cg2d: Sum(rhs),rhsMax =  -5.93451815467105E-11  9.92181312915680E-02
 cg2d: Sum(rhs),rhsMax =  -5.93878557442196E-11  9.92120842388711E-02
 cg2d: Sum(rhs),rhsMax =  -5.94539972809116E-11  9.92119561724749E-02
 cg2d: Sum(rhs),rhsMax =  -5.95164473260468E-11  9.92194433311519E-02
 cg2d: Sum(rhs),rhsMax =  -5.95223592636529E-11  9.92362503659521E-02
 cg2d: Sum(rhs),rhsMax =  -5.95753446575031E-11  9.92617536999250E-02
 cg2d: Sum(rhs),rhsMax =  -5.96054039458949E-11  9.92952132386286E-02
 cg2d: Sum(rhs),rhsMax =  -5.96191429558246E-11  9.93358481957862E-02
 cg2d: Sum(rhs),rhsMax =  -5.96330484992080E-11  9.93833583643837E-02
 cg2d: Sum(rhs),rhsMax =  -5.96635518768096E-11  9.94372260933615E-02
 cg2d: Sum(rhs),rhsMax =  -5.96781513095834E-11  9.94822685113518E-02
 cg2d: Sum(rhs),rhsMax =  -5.96939442321087E-11  9.95376458503830E-02
 cg2d: Sum(rhs),rhsMax =  -5.97101534882682E-11  9.96076607936078E-02
 cg2d: Sum(rhs),rhsMax =  -5.97220051190561E-11  9.96845081104735E-02
 cg2d: Sum(rhs),rhsMax =  -5.97371596633423E-11  9.97639112441197E-02
 cg2d: Sum(rhs),rhsMax =  -5.97278893010866E-11  9.98456820861499E-02
 cg2d: Sum(rhs),rhsMax =  -5.97295546356236E-11  9.99304912390788E-02
 cg2d: Sum(rhs),rhsMax =  -5.97083216202776E-11  1.00018593586166E-01
 cg2d: Sum(rhs),rhsMax =  -5.97170646265965E-11  1.00109716809190E-01
 cg2d: Sum(rhs),rhsMax =  -5.96984683909341E-11  1.00202845012952E-01
 cg2d: Sum(rhs),rhsMax =  -5.96966087673678E-11  1.00298701389567E-01
 cg2d: Sum(rhs),rhsMax =  -5.96665494789761E-11  1.00397612127155E-01
 cg2d: Sum(rhs),rhsMax =  -5.96485083548259E-11  1.00499192410459E-01
 cg2d: Sum(rhs),rhsMax =  -5.95937188485607E-11  1.00602952358884E-01
 cg2d: Sum(rhs),rhsMax =  -5.95967164507272E-11  1.00709377007823E-01
 cg2d: Sum(rhs),rhsMax =  -5.96206972680591E-11  1.00814966683811E-01
 cg2d: Sum(rhs),rhsMax =  -5.96241944705866E-11  1.00920197827074E-01
 cg2d: Sum(rhs),rhsMax =  -5.96463434199279E-11  1.01028226668965E-01
 cg2d: Sum(rhs),rhsMax =  -5.96022675658503E-11  1.01140860741770E-01
 cg2d: Sum(rhs),rhsMax =  -5.95887228449499E-11  1.01285621995297E-01
 cg2d: Sum(rhs),rhsMax =  -5.95678506520869E-11  1.01413958746336E-01
 cg2d: Sum(rhs),rhsMax =  -5.95611893139392E-11  1.01542918765930E-01
 cg2d: Sum(rhs),rhsMax =  -5.95514193513225E-11  1.01673800724027E-01
 cg2d: Sum(rhs),rhsMax =  -5.95235527534044E-11  1.01806530424200E-01
 cg2d: Sum(rhs),rhsMax =  -5.95263838221172E-11  1.01941654859521E-01
 cg2d: Sum(rhs),rhsMax =  -5.94957416666375E-11  1.02080079194938E-01
 cg2d: Sum(rhs),rhsMax =  -5.94896909511533E-11  1.02222247413713E-01
 cg2d: Sum(rhs),rhsMax =  -5.94574944834392E-11  1.02368565427840E-01
 cg2d: Sum(rhs),rhsMax =  -5.94631566208648E-11  1.02519352511099E-01
 cg2d: Sum(rhs),rhsMax =  -5.94315707758142E-11  1.02675006692810E-01
 cg2d: Sum(rhs),rhsMax =  -5.94070348469700E-11  1.02835709097164E-01
 cg2d: Sum(rhs),rhsMax =  -5.93523563630072E-11  1.03023848933929E-01
 cg2d: Sum(rhs),rhsMax =  -5.92797477771967E-11  1.03197876281826E-01
 cg2d: Sum(rhs),rhsMax =  -5.92062510129665E-11  1.03382939587602E-01
 cg2d: Sum(rhs),rhsMax =  -5.91384718973131E-11  1.03579539872233E-01
(PID.TID 0000.0001)      cg2d_init_res =   2.18123819607225E-02
(PID.TID 0000.0001)      cg2d_iters(min,last) =      -1      37
(PID.TID 0000.0001)      cg2d_last_res =   6.92511070918811E-14
(PID.TID 0000.0001) // =======================================================
(PID.TID 0000.0001) // Begin MONITOR dynamic field statistics
(PID.TID 0000.0001) // =======================================================
(PID.TID 0000.0001) %MON time_tsnumber                =                  7200
(PID.TID 0000.0001) %MON time_secondsf                =   1.0800000000000E+05
(PID.TID 0000.0001) %MON dynstat_eta_max              =   1.2376363213958E-02
(PID.TID 0000.0001) %MON dynstat_eta_min              =  -1.5572060267368E-02
(PID.TID 0000.0001) %MON dynstat_eta_mean             =   1.3518973971739E-14
(PID.TID 0000.0001) %MON dynstat_eta_sd               =   8.2489773650058E-03
(PID.TID 0000.0001) %MON dynstat_eta_del2             =   8.1039303653925E-05
(PID.TID 0000.0001) %MON dynstat_uvel_max             =   1.2962616484279E+00
(PID.TID 0000.0001) %MON dynstat_uvel_min             =  -3.6193928430127E-01
(PID.TID 0000.0001) %MON dynstat_uvel_mean            =   4.5272778179706E-01
(PID.TID 0000.0001) %MON dynstat_uvel_sd              =   1.0427844337095E-01
(PID.TID 0000.0001) %MON dynstat_uvel_del2            =   1.0953730358146E-03
(PID.TID 0000.0001) %MON dynstat_vvel_max             =   0.0000000000000E+00
(PID.TID 0000.0001) %MON dynstat_vvel_min             =   0.0000000000000E+00
(PID.TID 0000.0001) %MON dynstat_vvel_mean            =   0.0000000000000E+00
(PID.TID 0000.0001) %MON dynstat_vvel_sd              =   0.0000000000000E+00
(PID.TID 0000.0001) %MON dynstat_vvel_del2            =   0.0000000000000E+00
(PID.TID 0000.0001) %MON dynstat_wvel_max             =   4.0741834727175E-02
(PID.TID 0000.0001) %MON dynstat_wvel_min             =  -8.4927517020925E-02
(PID.TID 0000.0001) %MON dynstat_wvel_mean            =   6.3656294539465E-21
(PID.TID 0000.0001) %MON dynstat_wvel_sd              =   5.7180752975933E-03
(PID.TID 0000.0001) %MON dynstat_wvel_del2            =   1.7117205918560E-04
(PID.TID 0000.0001) %MON dynstat_theta_max            =   1.5000000000010E+01
(PID.TID 0000.0001) %MON dynstat_theta_min            =   9.9999999999983E+00
(PID.TID 0000.0001) %MON dynstat_theta_mean           =   1.1006121240656E+01
(PID.TID 0000.0001) %MON dynstat_theta_sd             =   1.8424432246165E+00
(PID.TID 0000.0001) %MON dynstat_theta_del2           =   7.7078696272830E-04
(PID.TID 0000.0001) %MON dynstat_salt_max             =   3.5000000000000E+01
(PID.TID 0000.0001) %MON dynstat_salt_min             =   3.5000000000000E+01
(PID.TID 0000.0001) %MON dynstat_salt_mean            =   3.5000000000000E+01
(PID.TID 0000.0001) %MON dynstat_salt_sd              =   4.0500935938326E-13
(PID.TID 0000.0001) %MON dynstat_salt_del2            =   0.0000000000000E+00
(PID.TID 0000.0001) %MON dynstat_sst_max              =   1.5000000000010E+01
(PID.TID 0000.0001) %MON dynstat_sst_min              =   1.4965225177727E+01
(PID.TID 0000.0001) %MON dynstat_sst_mean             =   1.4999215408868E+01
(PID.TID 0000.0001) %MON dynstat_sst_sd               =   4.1786829783056E-03
(PID.TID 0000.0001) %MON dynstat_sst_del2             =   9.2102327271411E-05
(PID.TID 0000.0001) %MON dynstat_sss_max              =   3.5000000000000E+01
(PID.TID 0000.0001) %MON dynstat_sss_min              =   3.5000000000000E+01
(PID.TID 0000.0001) %MON dynstat_sss_mean             =   3.5000000000000E+01
(PID.TID 0000.0001) %MON dynstat_sss_sd               =   4.2632564145606E-14
(PID.TID 0000.0001) %MON dynstat_sss_del2             =   0.0000000000000E+00
(PID.TID 0000.0001) %MON forcing_qnet_max             =   0.0000000000000E+00
(PID.TID 0000.0001) %MON forcing_qnet_min             =   0.0000000000000E+00
(PID.TID 0000.0001) %MON forcing_qnet_mean            =   0.0000000000000E+00
(PID.TID 0000.0001) %MON forcing_qnet_sd              =   0.0000000000000E+00
(PID.TID 0000.0001) %MON forcing_qnet_del2            =   0.0000000000000E+00
(PID.TID 0000.0001) %MON forcing_qsw_max              =   0.0000000000000E+00
(PID.TID 0000.0001) %MON forcing_qsw_min              =   0.0000000000000E+00
(PID.TID 0000.0001) %MON forcing_qsw_mean             =   0.0000000000000E+00
(PID.TID 0000.0001) %MON forcing_qsw_sd               =   0.0000000000000E+00
(PID.TID 0000.0001) %MON forcing_qsw_del2             =   0.0000000000000E+00
(PID.TID 0000.0001) %MON forcing_empmr_max            =   0.0000000000000E+00
(PID.TID 0000.0001) %MON forcing_empmr_min            =   0.0000000000000E+00
(PID.TID 0000.0001) %MON forcing_empmr_mean           =   0.0000000000000E+00
(PID.TID 0000.0001) %MON forcing_empmr_sd             =   0.0000000000000E+00
(PID.TID 0000.0001) %MON forcing_empmr_del2           =   0.0000000000000E+00
(PID.TID 0000.0001) %MON forcing_fu_max               =   0.0000000000000E+00
(PID.TID 0000.0001) %MON forcing_fu_min               =   0.0000000000000E+00
(PID.TID 0000.0001) %MON forcing_fu_mean              =   0.0000000000000E+00
(PID.TID 0000.0001) %MON forcing_fu_sd                =   0.0000000000000E+00
(PID.TID 0000.0001) %MON forcing_fu_del2              =   0.0000000000000E+00
(PID.TID 0000.0001) %MON forcing_fv_max               =   0.0000000000000E+00
(PID.TID 0000.0001) %MON forcing_fv_min               =   0.0000000000000E+00
(PID.TID 0000.0001) %MON forcing_fv_mean              =   0.0000000000000E+00
(PID.TID 0000.0001) %MON forcing_fv_sd                =   0.0000000000000E+00
(PID.TID 0000.0001) %MON forcing_fv_del2              =   0.0000000000000E+00
(PID.TID 0000.0001) %MON advcfl_uvel_max              =   9.3910144409513E-02
(PID.TID 0000.0001) %MON advcfl_vvel_max              =   0.0000000000000E+00
(PID.TID 0000.0001) %MON advcfl_wvel_max              =   5.7697190173482E-01
(PID.TID 0000.0001) %MON advcfl_W_hf_max              =   5.8324901225799E-01
(PID.TID 0000.0001) %MON pe_b_mean                    =   1.6864904443536E-06
(PID.TID 0000.0001) %MON ke_max                       =   7.5770226927323E-01
(PID.TID 0000.0001) %MON ke_mean                      =   1.0797285438148E-01
(PID.TID 0000.0001) %MON ke_vol                       =   9.6656886657870E+10
(PID.TID 0000.0001) %MON vort_r_min                   =   0.0000000000000E+00
(PID.TID 0000.0001) %MON vort_r_max                   =   0.0000000000000E+00
(PID.TID 0000.0001) %MON vort_a_mean                  =   0.0000000000000E+00
(PID.TID 0000.0001) %MON vort_a_sd                    =   0.0000000000000E+00
(PID.TID 0000.0001) %MON vort_p_mean                  =   0.0000000000000E+00
(PID.TID 0000.0001) %MON vort_p_sd                    =   0.0000000000000E+00
(PID.TID 0000.0001) %MON surfExpan_theta_mean         =   1.5334541660154E-09
(PID.TID 0000.0001) %MON surfExpan_salt_mean          =   1.8936089262711E-18
(PID.TID 0000.0001) // =======================================================
(PID.TID 0000.0001) // End MONITOR dynamic field statistics
(PID.TID 0000.0001) // =======================================================
(PID.TID 0000.0001) // =======================================================
(PID.TID 0000.0001) // Begin OBCS MONITOR field statistics
(PID.TID 0000.0001) // =======================================================
(PID.TID 0000.0001) %MON obc_E_uVel_max               =   4.4822851314926E-01
(PID.TID 0000.0001) %MON obc_E_uVel_min               =   4.4822851314926E-01
(PID.TID 0000.0001) %MON obc_E_uVel_mean              =   4.4822851314926E-01
(PID.TID 0000.0001) %MON obc_E_uVel_sd                =  -1.9428902930940E-16
(PID.TID 0000.0001) %MON obc_E_uVel_Int               =   4.4822851314926E+05
(PID.TID 0000.0001) %MON obc_W_uVel_max               =   4.4822851314926E-01
(PID.TID 0000.0001) %MON obc_W_uVel_min               =   4.4822851314926E-01
(PID.TID 0000.0001) %MON obc_W_uVel_mean              =   4.4822851314926E-01
(PID.TID 0000.0001) %MON obc_W_uVel_sd                =  -1.9428902930940E-16
(PID.TID 0000.0001) %MON obc_W_uVel_Int               =   4.4822851314926E+05
(PID.TID 0000.0001) // =======================================================
(PID.TID 0000.0001) // End OBCS MONITOR field statistics
(PID.TID 0000.0001) // =======================================================
(PID.TID 0000.0001) %CHECKPOINT      7200 0000007200
(PID.TID 0000.0001)   Seconds in section "ALL                    [THE_MODEL_MAIN]":
(PID.TID 0000.0001)           User time:   306.55000000000001
(PID.TID 0000.0001)         System time:   1.0700000000000001
(PID.TID 0000.0001)     Wall clock time:   307.74573898315430
(PID.TID 0000.0001)          No. starts:           1
(PID.TID 0000.0001)           No. stops:           1
(PID.TID 0000.0001)   Seconds in section "INITIALISE_FIXED       [THE_MODEL_MAIN]":
(PID.TID 0000.0001)           User time:   4.0000000000000001E-002
(PID.TID 0000.0001)         System time:   0.0000000000000000
(PID.TID 0000.0001)     Wall clock time:   4.6298980712890625E-002
(PID.TID 0000.0001)          No. starts:           1
(PID.TID 0000.0001)           No. stops:           1
(PID.TID 0000.0001)   Seconds in section "THE_MAIN_LOOP          [THE_MODEL_MAIN]":
(PID.TID 0000.0001)           User time:   306.50999999999999
(PID.TID 0000.0001)         System time:   1.0700000000000001
(PID.TID 0000.0001)     Wall clock time:   307.69940996170044
(PID.TID 0000.0001)          No. starts:           1
(PID.TID 0000.0001)           No. stops:           1
(PID.TID 0000.0001)   Seconds in section "INITIALISE_VARIA    [THE_MAIN_LOOP]":
(PID.TID 0000.0001)           User time:   1.0000000000000002E-002
(PID.TID 0000.0001)         System time:   2.0000000000000000E-002
(PID.TID 0000.0001)     Wall clock time:   2.7047872543334961E-002
(PID.TID 0000.0001)          No. starts:           1
(PID.TID 0000.0001)           No. stops:           1
(PID.TID 0000.0001)   Seconds in section "MAIN LOOP           [THE_MAIN_LOOP]":
(PID.TID 0000.0001)           User time:   306.50000000000000
(PID.TID 0000.0001)         System time:   1.0500000000000000
(PID.TID 0000.0001)     Wall clock time:   307.67233300209045
(PID.TID 0000.0001)          No. starts:           1
(PID.TID 0000.0001)           No. stops:           1
(PID.TID 0000.0001)   Seconds in section "MAIN_DO_LOOP        [THE_MAIN_LOOP]":
(PID.TID 0000.0001)           User time:   306.38999999999680
(PID.TID 0000.0001)         System time:   1.0499999999999983
(PID.TID 0000.0001)     Wall clock time:   307.60409402847290
(PID.TID 0000.0001)          No. starts:        7200
(PID.TID 0000.0001)           No. stops:        7200
(PID.TID 0000.0001)   Seconds in section "FORWARD_STEP        [MAIN_DO_LOOP]":
(PID.TID 0000.0001)           User time:   306.18999999999676
(PID.TID 0000.0001)         System time:   1.0499999999999983
(PID.TID 0000.0001)     Wall clock time:   307.46455216407776
(PID.TID 0000.0001)          No. starts:        7200
(PID.TID 0000.0001)           No. stops:        7200
(PID.TID 0000.0001)   Seconds in section "LOAD_FIELDS_DRIVER  [FORWARD_STEP]":
(PID.TID 0000.0001)           User time:  0.33999999999997499
(PID.TID 0000.0001)         System time:   0.0000000000000000
(PID.TID 0000.0001)     Wall clock time:  0.21043539047241211
(PID.TID 0000.0001)          No. starts:        7200
(PID.TID 0000.0001)           No. stops:        7200
(PID.TID 0000.0001)   Seconds in section "EXTERNAL_FLDS_LOAD [LOAD_FLDS_DRIVER]":
(PID.TID 0000.0001)           User time:   8.9999999999918145E-002
(PID.TID 0000.0001)         System time:   0.0000000000000000
(PID.TID 0000.0001)     Wall clock time:   6.9754123687744141E-002
(PID.TID 0000.0001)          No. starts:        7200
(PID.TID 0000.0001)           No. stops:        7200
(PID.TID 0000.0001)   Seconds in section "DO_ATMOSPHERIC_PHYS [FORWARD_STEP]":
(PID.TID 0000.0001)           User time:   5.0000000000011369E-002
(PID.TID 0000.0001)         System time:   0.0000000000000000
(PID.TID 0000.0001)     Wall clock time:   6.9957494735717773E-002
(PID.TID 0000.0001)          No. starts:        7200
(PID.TID 0000.0001)           No. stops:        7200
(PID.TID 0000.0001)   Seconds in section "DO_OCEANIC_PHYS     [FORWARD_STEP]":
(PID.TID 0000.0001)           User time:   110.46999999999838
(PID.TID 0000.0001)         System time:  0.31999999999999984
(PID.TID 0000.0001)     Wall clock time:   111.47271537780762
(PID.TID 0000.0001)          No. starts:        7200
(PID.TID 0000.0001)           No. stops:        7200
(PID.TID 0000.0001)   Seconds in section "DYNAMICS            [FORWARD_STEP]":
(PID.TID 0000.0001)           User time:   93.889999999999361
(PID.TID 0000.0001)         System time:  0.28000000000000025
(PID.TID 0000.0001)     Wall clock time:   93.792470932006836
(PID.TID 0000.0001)          No. starts:        7200
(PID.TID 0000.0001)           No. stops:        7200
(PID.TID 0000.0001)   Seconds in section "SOLVE_FOR_PRESSURE  [FORWARD_STEP]":
(PID.TID 0000.0001)           User time:   3.8299999999989041
(PID.TID 0000.0001)         System time:   1.0000000000000009E-002
(PID.TID 0000.0001)     Wall clock time:   3.4613256454467773
(PID.TID 0000.0001)          No. starts:        7200
(PID.TID 0000.0001)           No. stops:        7200
(PID.TID 0000.0001)   Seconds in section "MOM_CORRECTION_STEP [FORWARD_STEP]":
(PID.TID 0000.0001)           User time:   3.0799999999994156
(PID.TID 0000.0001)         System time:   0.0000000000000000
(PID.TID 0000.0001)     Wall clock time:   3.2594869136810303
(PID.TID 0000.0001)          No. starts:        7200
(PID.TID 0000.0001)           No. stops:        7200
(PID.TID 0000.0001)   Seconds in section "INTEGR_CONTINUITY   [FORWARD_STEP]":
(PID.TID 0000.0001)           User time:   1.6099999999995589
(PID.TID 0000.0001)         System time:   1.0000000000000009E-002
(PID.TID 0000.0001)     Wall clock time:   1.6847012042999268
(PID.TID 0000.0001)          No. starts:        7200
(PID.TID 0000.0001)           No. stops:        7200
(PID.TID 0000.0001)   Seconds in section "BLOCKING_EXCHANGES  [FORWARD_STEP]":
(PID.TID 0000.0001)           User time:   9.5699999999927172
(PID.TID 0000.0001)         System time:   2.0000000000000018E-002
(PID.TID 0000.0001)     Wall clock time:   8.9118068218231201
(PID.TID 0000.0001)          No. starts:       14400
(PID.TID 0000.0001)           No. stops:       14400
(PID.TID 0000.0001)   Seconds in section "THERMODYNAMICS      [FORWARD_STEP]":
(PID.TID 0000.0001)           User time:   81.529999999998040
(PID.TID 0000.0001)         System time:  0.39999999999999991
(PID.TID 0000.0001)     Wall clock time:   83.019063949584961
(PID.TID 0000.0001)          No. starts:        7200
(PID.TID 0000.0001)           No. stops:        7200
(PID.TID 0000.0001)   Seconds in section "TRC_CORRECTION_STEP [FORWARD_STEP]":
(PID.TID 0000.0001)           User time:   9.9999999999965894E-002
(PID.TID 0000.0001)         System time:   0.0000000000000000
(PID.TID 0000.0001)     Wall clock time:   7.1472406387329102E-002
(PID.TID 0000.0001)          No. starts:        7200
(PID.TID 0000.0001)           No. stops:        7200
(PID.TID 0000.0001)   Seconds in section "MONITOR             [FORWARD_STEP]":
(PID.TID 0000.0001)           User time:  0.13999999999987267
(PID.TID 0000.0001)         System time:   0.0000000000000000
(PID.TID 0000.0001)     Wall clock time:  0.12420773506164551
(PID.TID 0000.0001)          No. starts:        7200
(PID.TID 0000.0001)           No. stops:        7200
(PID.TID 0000.0001)   Seconds in section "DO_THE_MODEL_IO     [FORWARD_STEP]":
(PID.TID 0000.0001)           User time:  0.20999999999997954
(PID.TID 0000.0001)         System time:   1.0000000000000009E-002
(PID.TID 0000.0001)     Wall clock time:  0.21647524833679199
(PID.TID 0000.0001)          No. starts:        7200
(PID.TID 0000.0001)           No. stops:        7200
(PID.TID 0000.0001)   Seconds in section "DO_WRITE_PICKUP     [FORWARD_STEP]":
(PID.TID 0000.0001)           User time:  0.14000000000004320
(PID.TID 0000.0001)         System time:   0.0000000000000000
(PID.TID 0000.0001)     Wall clock time:  0.10625696182250977
(PID.TID 0000.0001)          No. starts:        7200
(PID.TID 0000.0001)           No. stops:        7200
(PID.TID 0000.0001) // ======================================================
(PID.TID 0000.0001) // Tile <-> Tile communication statistics
(PID.TID 0000.0001) // ======================================================
(PID.TID 0000.0001) // o Tile number: 000001
(PID.TID 0000.0001) //         No. X exchanges =              0
(PID.TID 0000.0001) //            Max. X spins =              0
(PID.TID 0000.0001) //            Min. X spins =     1000000000
(PID.TID 0000.0001) //          Total. X spins =              0
(PID.TID 0000.0001) //            Avg. X spins =       0.00E+00
(PID.TID 0000.0001) //         No. Y exchanges =              0
(PID.TID 0000.0001) //            Max. Y spins =              0
(PID.TID 0000.0001) //            Min. Y spins =     1000000000
(PID.TID 0000.0001) //          Total. Y spins =              0
(PID.TID 0000.0001) //            Avg. Y spins =       0.00E+00
(PID.TID 0000.0001) // o Thread number: 000001
(PID.TID 0000.0001) //            No. barriers =        1711368
(PID.TID 0000.0001) //      Max. barrier spins =              1
(PID.TID 0000.0001) //      Min. barrier spins =              1
(PID.TID 0000.0001) //     Total barrier spins =        1711368
(PID.TID 0000.0001) //      Avg. barrier spins =       1.00E+00
PROGRAM MAIN: Execution ended Normally
